# File generated by Flopy version 3.8.0 on 05/07/2026 at 20:44:18.
BEGIN options
  SAVE_FLOWS
END options

BEGIN griddata
  icelltype
    CONSTANT  0
  k
    INTERNAL  FACTOR  1.0
         4.21694030       2.91344444       4.01680042       8.07998654       8.92908111       8.77338637       4.63671861       6.54989285       4.26457811       2.77300540
         3.00272749       9.89074239       4.11885443       3.68721160       3.97383957       2.48082684       9.61876466       3.44407803       9.36492041       9.43251686
         3.67517420       4.55777315       2.42597115       5.86696561       4.01968207       8.40471823       1.40354627       7.24142542       1.93826874       8.82084018
         9.74552111       6.61132522       6.25880272       7.04198738       4.38758152       4.24975542       5.02659867       8.78989463       6.59985361       7.19592747
         3.67462702       7.13758567       2.02615786       5.35492660       5.83127286       5.83844952       5.16715337       6.61505417       7.42825263       5.20594861
         4.52789440       2.05404122       4.04231788       6.72650723       8.54685071       7.87848103       1.75482975       4.34502814       1.03559729       8.42117140
         9.69915380       6.63152346       9.51710346       3.95231543       2.56994253       1.15064200       5.29935509       9.32771372       3.35454673       3.55260620
         6.65671107       4.81768326       5.21387817       2.68362554       7.66535566       5.73736039       4.14400482       9.38986501       5.10924743       7.49292708
         2.79778996       8.21401807       2.73236575       9.46948237       6.07740251       5.28477220       5.46484836       7.28441417       2.94679387       9.01436361
         5.59593468       3.72063611       6.44587253       1.08110368       9.82454850       9.94704802       5.11248807       1.69542149       7.08716027       5.04675484
END griddata

