# File generated by Flopy version 3.10.0.dev5 on 01/30/2026 at 12:53:31.
BEGIN options
  READASARRAYS
END options

BEGIN period  1
  recharge
    CONSTANT       0.00400000
END period  1

