# File generated by Flopy version 3.10.0 on 05/09/2026 at 09:47:33.
BEGIN options
  SAVE_FLOWS
END options

BEGIN packages
  DIS6  sim_model_0465.dis  dis
  STO6  sim_model_0465.sto  sto
  NPF6  sim_model_0465.npf  npf
  IC6  sim_model_0465.ic  ic
  CHD6  sim_model_0465.chd  chd_0
  OC6  sim_model_0465.oc  oc
END packages

