# File generated by Flopy version 3.10.0.dev5 on 01/30/2026 at 12:53:34.
BEGIN options
END options

BEGIN packages
  DISV6  gwe-ates.disv  disv-gwe
  IC6  gwe-ates.ic  ic
  ADV6  gwe-ates.adv  adv
  EST6  gwe-ates.est  est
  CND6  gwe-ates.cnd  cnd
  SSM6  gwe-ates.ssm  ssm
  OC6  gwe-ates.oc  oc
END packages

