# File generated by Flopy version 3.10.0.dev5 on 01/30/2026 at 12:53:33.
BEGIN options
END options

BEGIN griddata
  strt
    CONSTANT    1000.00000000
END griddata

