# File generated by Flopy version 3.10.0.dev5 on 01/30/2026 at 12:53:33.
BEGIN options
  SAVE_FLOWS
END options

BEGIN packages
  DISV6  gwf-ates.disv  disv
  NPF6  gwf-ates.npf  npf
  IC6  gwf-ates.ic  ic
  STO6  gwf-ates.sto  sto
  WEL6  gwf-ates.wel  wel
  OC6  gwf-ates.oc  oc
END packages

