# File generated by Flopy version 3.10.0.dev5 on 01/30/2026 at 12:53:33.
BEGIN options
END options

BEGIN timing
  TDIS6  ex-gwe-ates.tdis
END timing

BEGIN models
  gwf6  gwf-ates.nam  gwf-ates
  gwe6  gwe-ates.nam  gwe-ates
END models

BEGIN exchanges
  GWF6-GWE6  gwe-ates.gwfgwe  gwf-ates  gwe-ates
END exchanges

BEGIN solutiongroup  1
  ims6  gwf-ates.ims  gwf-ates
  ims6  gwe-ates.ims  gwe-ates
END solutiongroup  1

