# File generated by Flopy version 3.10.0.dev5 on 01/30/2026 at 12:54:27.
BEGIN options
END options

BEGIN dimensions
  MAXBOUND  100
END dimensions

BEGIN period  1
  1 1       1.00000000
  1 2       0.00000000
  1 4       0.00000000
  1 6       0.00000000
  1 7       0.00000000
  1 14       0.00000000
  1 966       0.00000000
  1 1131       0.00000000
  1 1204       0.00000000
  1 1217       0.00000000
  1 1249       0.00000000
  1 1258       0.00000000
  1 1280       0.00000000
  1 1281       0.00000000
  1 1283       0.00000000
  1 1288       0.00000000
  1 1289       0.00000000
  1 1352       0.00000000
  1 1384       0.00000000
  1 1387       0.00000000
  1 1389       0.00000000
  1 1390       0.00000000
  1 1505       0.00000000
  1 1543       0.00000000
  1 1618       0.00000000
  1 1636       0.00000000
  1 1657       0.00000000
  1 1672       0.00000000
  1 1690       0.00000000
  1 1716       0.00000000
  1 1717       0.00000000
  1 1721       0.00000000
  1 1722       0.00000000
  1 1772       0.00000000
  1 1773       0.00000000
  1 1780       0.00000000
  1 1781       0.00000000
  1 1786       0.00000000
  1 1787       0.00000000
  1 1793       0.00000000
  1 1803       0.00000000
  1 1806       0.00000000
  1 1810       0.00000000
  1 1816       0.00000000
  1 1823       0.00000000
  1 1828       0.00000000
  1 1938       1.00000000
  1 1941       0.00000000
  1 1942       0.00000000
  1 1945       0.00000000
  1 2030       0.00000000
  1 2035       0.00000000
  1 2045       0.00000000
  1 2128       0.00000000
  1 2130       0.00000000
  1 2159       0.00000000
  1 2160       0.00000000
  1 2162       0.00000000
  1 2165       0.00000000
  1 2168       0.00000000
  1 2170       0.00000000
  1 2172       0.00000000
  1 2174       0.00000000
  1 2201       1.00000000
  1 2205       0.00000000
  1 2218       0.00000000
  1 2233       0.00000000
  1 2235       0.00000000
  1 2237       0.00000000
  1 2265       0.00000000
  1 2268       0.00000000
  1 2271       0.00000000
  1 2272       0.00000000
  1 2292       0.00000000
  1 2296       0.00000000
  1 2301       1.00000000
  1 2303       0.00000000
  1 2304       0.00000000
  1 2305       0.00000000
  1 2340       1.00000000
  1 2347       0.00000000
  1 2349       0.00000000
  1 2364       1.00000000
  1 2372       0.00000000
  1 2383       0.00000000
  1 2386       0.00000000
  1 2388       1.00000000
  1 2398       1.00000000
  1 2400       1.00000000
  1 2431       1.00000000
  1 2436       1.00000000
  1 2441       1.00000000
  1 2499       0.00000000
  1 2508       0.00000000
  1 2511       0.00000000
  1 2515       0.00000000
  1 2517       0.00000000
  1 2527       0.00000000
  1 2587       0.00000000
  1 2590       0.00000000
END period  1

