# File generated by Flopy version 3.10.0.dev5 on 01/30/2026 at 12:55:14.
BEGIN options
END options

BEGIN griddata
  porosity  LAYERED
    INTERNAL  FACTOR  1.0
           0.20000000       0.20000000       0.20000000       0.20000000       0.20000000       0.20000000       0.20000000       0.20000000       0.20000000       0.20000000       0.20000000       0.20000000       0.20000000       0.20000000       0.20000000       0.20000000       0.20000000       0.20000000       0.20000000       0.20000000
           0.20000000       0.20000000       0.20000000       0.20000000       0.20000000       0.20000000       0.20000000       0.20000000       0.20000000       0.20000000       0.20000000       0.20000000       0.20000000       0.20000000       0.20000000       0.20000000       0.20000000       0.20000000       0.20000000       0.20000000
           0.20000000       0.20000000       0.20000000       0.40000000       0.40000000       0.40000000       0.40000000       0.40000000       0.40000000       0.40000000       0.40000000       0.40000000       0.40000000       0.40000000       0.40000000       0.40000000       0.40000000       0.40000000       0.40000000       0.40000000
           0.40000000       0.40000000       0.40000000       0.40000000       0.40000000       0.40000000       0.40000000       0.40000000       0.40000000       0.40000000       0.40000000       0.40000000       0.40000000       0.40000000       0.40000000       0.40000000       0.40000000       0.40000000       0.40000000       0.40000000
           0.40000000       0.40000000       0.40000000       0.40000000       0.40000000       0.40000000       0.40000000       0.40000000       0.40000000       0.40000000       0.40000000       0.40000000       0.20000000       0.20000000       0.20000000       0.20000000       0.20000000       0.20000000       0.20000000       0.20000000
           0.20000000       0.20000000       0.20000000       0.20000000       0.20000000       0.20000000       0.20000000       0.20000000       0.20000000       0.20000000       0.20000000       0.20000000       0.20000000       0.20000000       0.20000000       0.20000000       0.20000000       0.20000000       0.20000000       0.20000000
           0.20000000       0.20000000       0.20000000       0.20000000       0.20000000       0.20000000       0.20000000       0.20000000       0.20000000       0.20000000       0.20000000       0.20000000       0.20000000       0.20000000       0.20000000       0.20000000       0.20000000       0.20000000       0.20000000       0.20000000
           0.20000000       0.20000000       0.20000000       0.20000000       0.20000000       0.20000000       0.20000000       0.20000000       0.20000000       0.20000000       0.20000000       0.20000000       0.20000000       0.20000000       0.20000000       0.20000000       0.20000000       0.20000000       0.20000000       0.20000000
           0.20000000       0.20000000       0.20000000       0.20000000       0.20000000       0.20000000       0.20000000       0.20000000       0.20000000       0.20000000       0.20000000       0.20000000       0.20000000       0.20000000       0.20000000       0.20000000       0.20000000       0.20000000       0.20000000       0.20000000
           0.20000000       0.20000000       0.20000000       0.20000000       0.20000000       0.20000000       0.20000000       0.20000000       0.20000000       0.20000000       0.20000000       0.20000000       0.20000000       0.20000000       0.20000000       0.20000000       0.20000000       0.20000000       0.20000000       0.20000000
           0.20000000       0.20000000       0.20000000       0.20000000       0.20000000       0.20000000       0.20000000       0.20000000       0.20000000       0.20000000       0.20000000       0.20000000       0.20000000       0.20000000       0.20000000       0.20000000       0.20000000       0.20000000       0.20000000       0.20000000
           0.20000000       0.20000000       0.20000000       0.20000000       0.20000000       0.20000000       0.20000000       0.20000000       0.20000000       0.20000000       0.20000000       0.20000000       0.20000000       0.20000000       0.20000000       0.20000000       0.20000000       0.20000000       0.20000000       0.20000000
           0.20000000       0.20000000       0.20000000       0.20000000       0.20000000       0.20000000       0.20000000       0.20000000       0.20000000       0.20000000       0.20000000       0.20000000       0.20000000       0.20000000       0.20000000       0.20000000       0.20000000       0.20000000       0.20000000       0.20000000
           0.20000000       0.20000000       0.20000000       0.20000000       0.20000000       0.20000000       0.20000000       0.20000000       0.20000000       0.20000000       0.20000000       0.20000000       0.20000000       0.20000000       0.20000000       0.20000000       0.20000000       0.20000000       0.20000000       0.20000000
           0.20000000       0.20000000       0.20000000       0.20000000       0.20000000       0.20000000       0.20000000       0.20000000       0.20000000       0.20000000       0.20000000       0.20000000       0.20000000       0.20000000       0.20000000       0.20000000       0.20000000       0.20000000       0.20000000       0.20000000
           0.20000000       0.20000000       0.20000000       0.20000000       0.20000000       0.20000000       0.20000000       0.20000000       0.20000000       0.20000000       0.20000000       0.20000000       0.20000000       0.20000000       0.20000000       0.20000000       0.20000000       0.20000000       0.20000000       0.20000000
           0.20000000       0.20000000       0.20000000       0.20000000       0.20000000       0.20000000       0.20000000       0.20000000       0.20000000       0.20000000       0.20000000       0.20000000       0.20000000       0.20000000       0.20000000       0.20000000       0.20000000       0.20000000       0.20000000       0.20000000
           0.20000000       0.20000000       0.20000000       0.20000000       0.20000000       0.20000000       0.20000000       0.20000000       0.20000000       0.20000000       0.20000000       0.20000000       0.20000000       0.20000000       0.20000000       0.20000000       0.20000000       0.20000000       0.20000000       0.20000000
           0.20000000       0.20000000       0.20000000       0.20000000       0.20000000       0.20000000       0.20000000       0.20000000       0.20000000       0.20000000       0.20000000       0.20000000       0.20000000       0.20000000       0.20000000       0.20000000       0.20000000       0.20000000       0.20000000       0.20000000
           0.20000000       0.20000000       0.20000000       0.20000000       0.20000000       0.20000000       0.20000000       0.20000000       0.20000000       0.20000000       0.20000000       0.20000000       0.20000000       0.20000000       0.20000000       0.20000000       0.20000000       0.20000000       0.20000000       0.20000000
           0.20000000       0.20000000       0.20000000       0.20000000       0.20000000       0.20000000       0.20000000       0.20000000       0.20000000       0.20000000       0.20000000       0.20000000       0.20000000       0.20000000       0.40000000       0.40000000       0.40000000       0.40000000       0.40000000       0.40000000
           0.40000000       0.40000000       0.40000000       0.40000000       0.40000000       0.40000000       0.40000000       0.40000000       0.40000000       0.40000000       0.40000000       0.40000000       0.40000000       0.40000000       0.40000000       0.40000000       0.40000000       0.40000000       0.40000000       0.40000000
           0.40000000       0.40000000       0.40000000       0.40000000       0.40000000       0.40000000       0.40000000       0.40000000       0.40000000       0.40000000       0.40000000       0.40000000       0.40000000       0.40000000       0.40000000       0.40000000       0.40000000       0.40000000       0.40000000       0.40000000
           0.40000000       0.40000000       0.40000000       0.40000000       0.40000000       0.40000000       0.40000000       0.40000000       0.40000000       0.40000000       0.40000000       0.40000000       0.40000000       0.40000000       0.40000000       0.40000000       0.40000000       0.40000000       0.40000000       0.40000000
           0.40000000       0.40000000       0.40000000       0.40000000       0.40000000       0.40000000       0.40000000       0.40000000       0.40000000       0.40000000       0.40000000       0.40000000       0.40000000       0.40000000       0.40000000       0.40000000       0.40000000       0.40000000       0.40000000       0.40000000
           0.40000000       0.40000000       0.40000000       0.40000000       0.40000000       0.40000000       0.40000000       0.40000000       0.40000000       0.40000000       0.40000000       0.40000000       0.40000000       0.40000000       0.40000000       0.40000000       0.40000000       0.40000000       0.40000000       0.40000000
           0.40000000       0.40000000       0.40000000       0.40000000       0.40000000       0.40000000       0.40000000       0.40000000       0.40000000       0.40000000       0.40000000       0.40000000       0.40000000       0.40000000       0.40000000       0.40000000       0.40000000       0.40000000       0.40000000       0.40000000
           0.40000000       0.40000000       0.40000000       0.40000000       0.40000000       0.40000000       0.40000000       0.40000000       0.40000000       0.40000000       0.40000000       0.40000000       0.40000000       0.40000000       0.40000000       0.40000000       0.40000000       0.40000000       0.40000000       0.40000000
           0.40000000       0.40000000       0.40000000       0.40000000       0.40000000       0.40000000       0.40000000       0.40000000       0.40000000       0.40000000       0.40000000       0.40000000       0.40000000       0.40000000       0.40000000       0.40000000       0.40000000       0.40000000       0.40000000       0.40000000
           0.40000000       0.40000000       0.40000000       0.40000000       0.40000000       0.40000000       0.40000000       0.40000000       0.40000000       0.40000000       0.40000000       0.40000000       0.40000000       0.40000000       0.40000000       0.40000000       0.40000000       0.40000000       0.40000000       0.40000000
           0.40000000       0.40000000       0.40000000       0.40000000       0.40000000       0.40000000       0.40000000       0.40000000       0.40000000       0.40000000       0.40000000       0.40000000       0.40000000       0.40000000       0.40000000       0.40000000       0.40000000       0.40000000       0.40000000       0.40000000
           0.40000000       0.40000000       0.40000000       0.40000000       0.40000000       0.40000000       0.40000000       0.40000000       0.40000000       0.40000000       0.40000000       0.40000000       0.40000000       0.40000000       0.40000000       0.40000000       0.40000000       0.40000000       0.40000000       0.40000000
           0.40000000       0.40000000       0.40000000       0.40000000       0.40000000       0.40000000       0.40000000       0.40000000       0.40000000       0.40000000       0.40000000       0.40000000       0.40000000       0.40000000       0.40000000       0.40000000       0.40000000       0.40000000       0.40000000       0.40000000
           0.40000000       0.20000000       0.20000000       0.20000000       0.20000000       0.20000000       0.20000000       0.20000000       0.20000000       0.20000000       0.20000000       0.20000000       0.20000000       0.20000000       0.20000000       0.20000000       0.20000000       0.20000000       0.20000000       0.20000000
           0.20000000       0.20000000       0.20000000       0.20000000       0.20000000       0.20000000       0.20000000       0.20000000       0.20000000       0.20000000       0.20000000       0.20000000       0.20000000       0.20000000       0.20000000       0.20000000       0.20000000       0.20000000       0.20000000       0.20000000
           0.20000000       0.20000000       0.20000000       0.20000000       0.20000000       0.20000000       0.20000000       0.20000000       0.20000000       0.20000000       0.20000000       0.20000000       0.20000000       0.20000000       0.20000000       0.20000000       0.20000000       0.20000000       0.20000000       0.20000000
           0.20000000       0.20000000       0.20000000       0.20000000       0.20000000       0.20000000       0.20000000       0.20000000       0.20000000       0.20000000       0.20000000       0.20000000       0.20000000       0.20000000       0.20000000       0.20000000       0.20000000       0.20000000       0.20000000       0.20000000
           0.20000000       0.20000000       0.20000000       0.20000000       0.20000000       0.20000000       0.20000000       0.20000000       0.20000000       0.20000000       0.20000000       0.20000000       0.20000000       0.20000000       0.20000000       0.20000000       0.20000000       0.20000000       0.20000000       0.20000000
           0.20000000       0.20000000       0.20000000       0.20000000       0.20000000       0.20000000       0.20000000       0.20000000       0.20000000       0.20000000       0.20000000       0.20000000       0.20000000       0.20000000       0.20000000       0.20000000       0.20000000       0.20000000       0.20000000       0.20000000
           0.20000000       0.20000000       0.20000000       0.20000000       0.20000000       0.20000000       0.20000000       0.20000000       0.20000000       0.20000000       0.20000000       0.20000000       0.20000000       0.20000000       0.20000000       0.20000000       0.20000000       0.20000000       0.20000000       0.20000000
           0.20000000       0.20000000       0.20000000       0.20000000       0.20000000       0.20000000       0.20000000       0.20000000       0.20000000       0.20000000       0.20000000       0.20000000       0.20000000       0.20000000       0.20000000       0.20000000       0.20000000       0.20000000       0.20000000       0.20000000
           0.20000000       0.20000000       0.20000000       0.20000000       0.20000000       0.20000000       0.20000000       0.20000000       0.20000000       0.20000000       0.20000000       0.20000000       0.20000000       0.20000000       0.20000000       0.20000000       0.20000000       0.20000000       0.20000000       0.20000000
           0.20000000       0.20000000       0.40000000       0.40000000       0.40000000       0.40000000       0.40000000       0.40000000       0.40000000       0.40000000       0.40000000       0.40000000       0.40000000       0.40000000       0.40000000       0.40000000       0.40000000       0.40000000       0.40000000       0.40000000
           0.40000000       0.40000000       0.40000000       0.40000000       0.40000000       0.40000000       0.40000000       0.40000000       0.40000000       0.40000000       0.40000000       0.40000000       0.40000000       0.40000000       0.40000000       0.40000000       0.40000000       0.40000000       0.40000000       0.40000000
           0.40000000       0.40000000       0.40000000       0.40000000       0.40000000       0.40000000       0.40000000       0.40000000       0.40000000       0.40000000       0.40000000       0.40000000       0.40000000       0.40000000       0.40000000       0.40000000       0.40000000       0.40000000       0.40000000       0.40000000
           0.40000000       0.40000000       0.40000000       0.40000000       0.40000000       0.40000000       0.40000000       0.40000000       0.40000000       0.40000000       0.40000000       0.40000000       0.40000000       0.40000000       0.40000000       0.40000000       0.40000000       0.40000000       0.40000000       0.40000000
           0.40000000       0.40000000       0.40000000       0.40000000       0.40000000       0.40000000       0.40000000       0.40000000       0.40000000       0.40000000       0.40000000       0.40000000       0.40000000       0.40000000       0.40000000       0.40000000       0.40000000       0.40000000       0.40000000       0.40000000
           0.40000000       0.40000000       0.40000000       0.40000000       0.40000000       0.40000000       0.40000000       0.40000000       0.40000000       0.40000000       0.40000000       0.40000000       0.40000000       0.40000000       0.40000000       0.20000000       0.20000000       0.40000000       0.40000000       0.40000000
           0.40000000       0.40000000       0.40000000       0.40000000       0.40000000       0.40000000       0.40000000       0.40000000       0.40000000       0.40000000       0.20000000       0.40000000       0.40000000       0.40000000       0.40000000       0.40000000       0.40000000       0.40000000       0.40000000       0.40000000
           0.40000000       0.40000000       0.40000000       0.40000000       0.40000000       0.40000000       0.40000000       0.40000000       0.40000000       0.40000000       0.40000000       0.20000000       0.20000000       0.40000000       0.20000000       0.40000000       0.40000000       0.40000000       0.40000000       0.40000000
           0.40000000       0.40000000       0.40000000       0.40000000       0.40000000       0.40000000       0.20000000       0.20000000       0.20000000       0.20000000       0.20000000       0.40000000       0.40000000       0.40000000       0.40000000       0.20000000       0.40000000       0.40000000       0.40000000       0.40000000
           0.40000000       0.40000000       0.20000000       0.20000000       0.20000000       0.20000000       0.20000000       0.40000000       0.40000000       0.40000000       0.20000000       0.20000000       0.20000000       0.40000000       0.40000000       0.40000000       0.40000000       0.40000000       0.40000000       0.40000000
           0.40000000       0.40000000       0.40000000       0.20000000       0.40000000       0.40000000       0.40000000       0.40000000       0.40000000       0.40000000       0.40000000       0.40000000       0.40000000       0.40000000       0.40000000       0.40000000       0.40000000       0.20000000       0.20000000       0.20000000
           0.40000000       0.40000000       0.40000000       0.40000000       0.40000000       0.20000000       0.20000000       0.20000000       0.20000000       0.20000000       0.40000000       0.40000000       0.40000000       0.40000000       0.40000000       0.40000000       0.40000000       0.40000000       0.40000000       0.40000000
           0.40000000       0.40000000       0.40000000       0.40000000       0.40000000       0.20000000       0.40000000       0.40000000       0.40000000       0.40000000       0.40000000       0.40000000       0.40000000       0.40000000       0.40000000       0.40000000       0.40000000       0.40000000       0.40000000       0.40000000
           0.40000000       0.20000000       0.40000000       0.40000000       0.40000000       0.40000000       0.40000000       0.40000000       0.40000000       0.40000000       0.40000000       0.40000000       0.40000000       0.40000000       0.40000000       0.40000000       0.40000000       0.20000000       0.40000000       0.40000000
           0.40000000       0.40000000       0.40000000       0.40000000       0.40000000       0.40000000       0.40000000       0.40000000       0.40000000       0.40000000       0.40000000       0.40000000       0.40000000       0.40000000       0.40000000       0.40000000       0.20000000       0.40000000       0.40000000       0.20000000
           0.20000000       0.20000000       0.20000000       0.20000000       0.20000000       0.20000000       0.20000000       0.20000000       0.20000000       0.20000000       0.20000000       0.20000000       0.20000000       0.20000000       0.20000000       0.20000000       0.20000000       0.20000000       0.20000000       0.20000000
           0.40000000       0.40000000       0.40000000       0.40000000       0.40000000       0.40000000       0.40000000       0.40000000       0.40000000       0.40000000       0.40000000       0.40000000       0.40000000       0.40000000       0.40000000       0.40000000       0.40000000       0.40000000       0.20000000       0.40000000
           0.40000000       0.40000000       0.40000000       0.40000000       0.40000000       0.40000000       0.20000000       0.40000000       0.40000000       0.40000000       0.40000000       0.40000000       0.40000000       0.40000000       0.40000000       0.40000000       0.20000000       0.20000000       0.20000000       0.20000000
           0.20000000       0.20000000       0.20000000       0.20000000       0.20000000       0.20000000       0.20000000       0.20000000       0.20000000       0.20000000       0.20000000       0.20000000       0.20000000       0.20000000       0.20000000       0.20000000       0.20000000       0.20000000       0.20000000       0.20000000
           0.20000000       0.20000000       0.20000000       0.20000000       0.20000000       0.20000000       0.20000000       0.20000000       0.20000000       0.20000000       0.20000000       0.20000000       0.20000000       0.20000000       0.20000000       0.20000000       0.20000000       0.20000000       0.20000000       0.20000000
           0.40000000       0.40000000       0.40000000       0.40000000       0.40000000       0.40000000       0.40000000       0.40000000       0.40000000       0.40000000       0.40000000       0.40000000       0.40000000       0.40000000       0.40000000       0.40000000       0.40000000       0.40000000       0.40000000       0.40000000
           0.40000000       0.40000000       0.40000000       0.40000000       0.40000000       0.40000000       0.40000000       0.40000000       0.40000000       0.40000000       0.40000000       0.40000000       0.40000000       0.20000000       0.20000000       0.20000000       0.20000000       0.20000000       0.20000000       0.20000000
           0.20000000       0.20000000       0.20000000       0.20000000       0.20000000       0.20000000       0.20000000       0.20000000       0.20000000       0.20000000       0.20000000       0.20000000       0.20000000       0.20000000       0.20000000       0.20000000       0.20000000       0.20000000       0.20000000       0.20000000
           0.20000000       0.20000000       0.20000000       0.20000000       0.20000000       0.40000000       0.40000000       0.40000000       0.40000000       0.40000000       0.40000000       0.40000000       0.40000000       0.40000000       0.40000000       0.40000000       0.40000000       0.40000000       0.40000000       0.40000000
           0.40000000       0.40000000       0.40000000       0.40000000       0.40000000       0.40000000       0.20000000       0.20000000       0.20000000       0.20000000       0.20000000       0.20000000       0.20000000       0.20000000       0.20000000       0.20000000       0.20000000       0.20000000       0.20000000       0.20000000
           0.20000000       0.20000000       0.40000000       0.40000000       0.40000000       0.40000000       0.40000000       0.40000000       0.40000000       0.40000000       0.40000000       0.40000000       0.40000000       0.40000000       0.40000000       0.20000000       0.20000000       0.20000000       0.20000000       0.20000000
           0.20000000       0.20000000       0.20000000       0.20000000       0.40000000       0.40000000       0.40000000       0.40000000       0.20000000       0.20000000       0.20000000       0.40000000       0.40000000       0.40000000       0.40000000       0.40000000       0.40000000       0.40000000       0.20000000       0.20000000
           0.20000000       0.40000000       0.40000000       0.40000000       0.40000000       0.40000000       0.20000000       0.20000000       0.40000000       0.40000000       0.40000000       0.40000000       0.40000000       0.40000000       0.20000000       0.20000000       0.20000000       0.20000000       0.20000000       0.20000000
           0.20000000       0.20000000       0.20000000       0.20000000       0.20000000       0.20000000       0.20000000       0.20000000       0.20000000       0.20000000       0.20000000       0.20000000       0.40000000       0.40000000       0.40000000       0.40000000       0.40000000       0.40000000       0.40000000       0.40000000
           0.40000000       0.40000000       0.20000000       0.20000000       0.20000000       0.20000000       0.40000000       0.20000000       0.20000000       0.20000000       0.20000000       0.20000000       0.20000000       0.40000000       0.40000000       0.40000000       0.40000000       0.20000000       0.20000000       0.40000000
           0.40000000       0.40000000       0.40000000       0.40000000       0.40000000       0.40000000       0.20000000       0.20000000       0.20000000       0.20000000       0.20000000       0.20000000       0.20000000       0.20000000       0.20000000       0.20000000       0.20000000       0.20000000       0.40000000       0.40000000
           0.40000000       0.40000000       0.20000000       0.20000000       0.20000000       0.40000000       0.20000000       0.20000000       0.20000000       0.20000000       0.40000000       0.40000000       0.40000000       0.20000000       0.40000000       0.40000000       0.40000000       0.20000000       0.40000000       0.40000000
           0.20000000       0.20000000       0.40000000       0.20000000       0.20000000       0.20000000       0.20000000       0.40000000       0.40000000       0.40000000       0.20000000       0.20000000       0.20000000       0.20000000       0.20000000       0.20000000       0.20000000       0.20000000       0.20000000       0.20000000
           0.20000000       0.20000000       0.20000000       0.20000000       0.20000000       0.20000000       0.20000000       0.20000000       0.20000000       0.20000000       0.20000000       0.20000000       0.20000000       0.20000000       0.20000000       0.20000000       0.20000000       0.20000000       0.20000000       0.20000000
           0.20000000       0.20000000       0.20000000       0.20000000       0.20000000       0.20000000       0.20000000       0.20000000       0.20000000       0.20000000       0.20000000       0.20000000       0.20000000       0.20000000       0.20000000       0.20000000       0.20000000       0.20000000       0.20000000       0.20000000
           0.20000000       0.20000000       0.20000000       0.20000000       0.20000000       0.20000000       0.20000000       0.20000000       0.20000000       0.20000000       0.20000000       0.40000000       0.40000000       0.40000000       0.40000000       0.40000000       0.40000000       0.40000000       0.40000000       0.40000000
           0.40000000       0.40000000       0.20000000       0.40000000       0.40000000       0.40000000       0.20000000       0.20000000       0.20000000       0.20000000       0.20000000       0.20000000       0.20000000       0.20000000       0.20000000       0.40000000       0.40000000       0.40000000       0.20000000       0.20000000
           0.20000000       0.20000000       0.20000000       0.20000000       0.40000000       0.40000000       0.40000000       0.40000000       0.40000000       0.40000000       0.40000000       0.20000000       0.20000000       0.20000000       0.20000000       0.40000000       0.40000000       0.40000000       0.40000000       0.40000000
           0.40000000       0.20000000       0.20000000       0.20000000       0.40000000       0.40000000       0.40000000       0.40000000       0.20000000       0.20000000       0.20000000       0.20000000       0.20000000       0.20000000       0.20000000       0.20000000       0.20000000       0.20000000       0.20000000       0.20000000
           0.20000000       0.20000000       0.20000000       0.20000000       0.20000000       0.20000000       0.20000000       0.20000000       0.20000000       0.20000000       0.20000000       0.20000000       0.20000000       0.20000000       0.20000000       0.20000000       0.20000000       0.40000000       0.40000000       0.40000000
           0.40000000       0.40000000       0.40000000       0.40000000       0.40000000       0.20000000       0.20000000       0.20000000       0.20000000       0.40000000       0.40000000       0.20000000       0.20000000       0.20000000       0.20000000       0.20000000       0.40000000       0.40000000       0.40000000       0.40000000
           0.40000000       0.40000000       0.20000000       0.40000000       0.20000000       0.20000000       0.20000000       0.20000000       0.20000000       0.20000000       0.20000000       0.20000000       0.20000000       0.20000000       0.20000000       0.20000000       0.20000000       0.20000000       0.20000000       0.20000000
           0.20000000       0.20000000       0.20000000       0.20000000       0.20000000       0.20000000       0.20000000       0.20000000       0.20000000       0.20000000       0.20000000       0.20000000       0.20000000       0.20000000       0.20000000       0.20000000       0.20000000       0.20000000       0.20000000       0.20000000
           0.20000000       0.20000000       0.20000000       0.20000000       0.20000000       0.20000000       0.20000000       0.20000000       0.20000000       0.20000000       0.20000000       0.20000000       0.20000000       0.20000000       0.20000000       0.20000000       0.20000000       0.20000000       0.20000000       0.20000000