# File generated by Flopy version 3.10.0.dev5 on 01/30/2026 at 12:55:14.
BEGIN options
  PRINT_OPTION  all
  COMPLEXITY  simple
END options

BEGIN linear
  LINEAR_ACCELERATION  bicgstab
END linear

