# File generated by Flopy version 3.10.0.dev5 on 01/30/2026 at 12:55:14.
BEGIN options
  CONCENTRATION  FILEOUT  trans.ucn
END options

BEGIN period  1
  SAVE  CONCENTRATION  LAST
  PRINT  BUDGET  ALL
END period  1

