# File generated by Flopy version 3.10.0.dev5 on 01/30/2026 at 12:53:49.
BEGIN options
END options

BEGIN griddata
  iconvert
    CONSTANT  1
  ss
    CONSTANT  3.00000000E-04
  sy
    CONSTANT       0.20000000
END griddata

