# File generated by Flopy version 3.10.0.dev5 on 01/30/2026 at 12:53:49.
BEGIN options
  TIME_UNITS  days
END options

BEGIN dimensions
  NPER  1
END dimensions

BEGIN perioddata
    1500.00000000  200       1.00500000
END perioddata

