# File generated by Flopy version 3.10.0.dev5 on 01/30/2026 at 12:55:19.
BEGIN options
  DIGITS  10
END options

BEGIN continuous  FILEOUT  obs_lak.csv
  LAK1_STAGE  STAGE  1
  LAK2_STAGE  STAGE  2
  LAK1_TO-MVR  TO-MVR  1
  LAK1_FROM-MVR  FROM-MVR  1
  LAK2_TO-MVR  TO-MVR  2
  LAK2_FROM-MVR  FROM-MVR  2
END continuous  FILEOUT  obs_lak.csv

