# File generated by Flopy version 3.10.0.dev5 on 01/30/2026 at 12:55:24.
BEGIN options
  READASARRAYS
END options

BEGIN period  1
  recharge
    CONSTANT  3.00000000E-08
END period  1

