# File generated by Flopy version 3.10.0.dev5 on 01/30/2026 at 12:55:24.
BEGIN options
END options

BEGIN timing
  TDIS6  ex-gwf-twri01.tdis
END timing

BEGIN models
  gwf6  ex-gwf-twri01.nam  ex-gwf-twri01
END models

BEGIN exchanges
END exchanges

BEGIN solutiongroup  1
  ims6  ex-gwf-twri01.ims  ex-gwf-twri01
END solutiongroup  1

