# File generated by Flopy version 3.10.0.dev5 on 01/30/2026 at 12:54:38.
BEGIN options
  DIGITS  10
  PRINT_INPUT
END options

BEGIN continuous  FILEOUT  trans.obs.csv
  SOURCELOC  CONCENTRATION  1 12 8
END continuous  FILEOUT  trans.obs.csv

