# File generated by Flopy version 3.10.0.dev5 on 01/30/2026 at 12:54:38.
BEGIN options
  PRINT_OPTION  summary
END options

BEGIN nonlinear
  OUTER_DVCLOSE       0.01000000
  UNDER_RELAXATION  simple
  UNDER_RELAXATION_GAMMA       0.90000000
END nonlinear

BEGIN linear
  INNER_DVCLOSE       0.01000000
  LINEAR_ACCELERATION  bicgstab
  RELAXATION_FACTOR       0.99000000
END linear

