# File generated by Flopy version 3.10.0.dev5 on 01/30/2026 at 12:54:38.
BEGIN options
END options

BEGIN dimensions
  MAXBOUND  1
END dimensions

BEGIN period  1
  1 652       2.50000000
END period  1

