# File generated by Flopy version 3.8.0 on 05/07/2026 at 20:45:13.
BEGIN options
  SAVE_FLOWS
END options

BEGIN griddata
  icelltype
    CONSTANT  0
  k
    INTERNAL  FACTOR  1.0
         3.42426229       8.28722400       3.14478852       7.21695335       6.07581818       7.43339574       1.81338082       3.93556321       9.83614135       6.62077459
         8.95816412       4.78662776       6.49324172       2.99156394       4.61266328       4.09857915       9.89970730       1.29403588       8.33580054       6.38816789
         2.00902828       8.53533233       1.00366759       1.08870622       5.57466625       4.67370441       5.03271879       5.96680616       6.42854593       5.69460848
         1.34718075       8.74651289       5.47106503       1.72800445       1.15792025       2.39508234       4.01317775       3.44032245       5.55597526       6.50596785
         3.35104551       8.79303230       8.63692807       2.75642770       2.09536294       9.36385108       6.17138119       1.28010818       6.67449432       2.86383605
         2.60130681       7.78842298       8.79666458       5.45251855       1.19632606       1.23867745       1.38559715       2.19609409       6.75128703       6.23739423
         5.84123242       9.02225950       9.11211460       9.61361805       5.45409481       3.80091095       3.49481078       7.70047426       2.52890924       9.39126209
         8.55915784       4.83509204       1.85962913       4.81414642       2.79962373       5.53076465       1.19793897       8.76264805       9.80643781       1.35104709
         7.85862904       3.00099848       9.07084019       9.71253792       1.05889081       4.34409260       5.35262694       6.53216539       1.18982351       6.23539347
         2.35138904       9.16317047       9.52854020       8.04677993       6.43524250       4.70924813       4.61912626       9.45022674       1.72577402       6.13952160
END griddata

