# File generated by Flopy version 3.10.0.dev5 on 01/30/2026 at 12:54:25.
BEGIN options
END options

BEGIN dimensions
  NLAY  1
  NCPL  2500
  NVERT  2601
END dimensions

BEGIN griddata
  top
    CONSTANT       1.00000000
  botm
    CONSTANT       0.00000000
END griddata

BEGIN vertices
  1       0.00000000     100.00000000
  2       2.00000000     100.00000000
  3       2.00000000      98.00000000
  4       0.00000000      98.00000000
  5       4.00000000     100.00000000
  6       4.00000000      98.00000000
  7       6.00000000     100.00000000
  8       6.00000000      98.00000000
  9       8.00000000     100.00000000
  10       8.00000000      98.00000000
  11      10.00000000     100.00000000
  12      10.00000000      98.00000000
  13      12.00000000     100.00000000
  14      12.00000000      98.00000000
  15      14.00000000     100.00000000
  16      14.00000000      98.00000000
  17      16.00000000     100.00000000
  18      16.00000000      98.00000000
  19      18.00000000     100.00000000
  20      18.00000000      98.00000000
  21      20.00000000     100.00000000
  22      20.00000000      98.00000000
  23      22.00000000     100.00000000
  24      22.00000000      98.00000000
  25      24.00000000     100.00000000
  26      24.00000000      98.00000000
  27      26.00000000     100.00000000
  28      26.00000000      98.00000000
  29      28.00000000     100.00000000
  30      28.00000000      98.00000000
  31      30.00000000     100.00000000
  32      30.00000000      98.00000000
  33      32.00000000     100.00000000
  34      32.00000000      98.00000000
  35      34.00000000     100.00000000
  36      34.00000000      98.00000000
  37      36.00000000     100.00000000
  38      36.00000000      98.00000000
  39      38.00000000     100.00000000
  40      38.00000000      98.00000000
  41      40.00000000     100.00000000
  42      40.00000000      98.00000000
  43      42.00000000     100.00000000
  44      42.00000000      98.00000000
  45      44.00000000     100.00000000
  46      44.00000000      98.00000000
  47      46.00000000     100.00000000
  48      46.00000000      98.00000000
  49      48.00000000     100.00000000
  50      48.00000000      98.00000000
  51      50.00000000     100.00000000
  52      50.00000000      98.00000000
  53      52.00000000     100.00000000
  54      52.00000000      98.00000000
  55      54.00000000     100.00000000
  56      54.00000000      98.00000000
  57      56.00000000     100.00000000
  58      56.00000000      98.00000000
  59      58.00000000     100.00000000
  60      58.00000000      98.00000000
  61      60.00000000     100.00000000
  62      60.00000000      98.00000000
  63      62.00000000     100.00000000
  64      62.00000000      98.00000000
  65      64.00000000     100.00000000
  66      64.00000000      98.00000000
  67      66.00000000     100.00000000
  68      66.00000000      98.00000000
  69      68.00000000     100.00000000
  70      68.00000000      98.00000000
  71      70.00000000     100.00000000
  72      70.00000000      98.00000000
  73      72.00000000     100.00000000
  74      72.00000000      98.00000000
  75      74.00000000     100.00000000
  76      74.00000000      98.00000000
  77      76.00000000     100.00000000
  78      76.00000000      98.00000000
  79      78.00000000     100.00000000
  80      78.00000000      98.00000000
  81      80.00000000     100.00000000
  82      80.00000000      98.00000000
  83      82.00000000     100.00000000
  84      82.00000000      98.00000000
  85      84.00000000     100.00000000
  86      84.00000000      98.00000000
  87      86.00000000     100.00000000
  88      86.00000000      98.00000000
  89      88.00000000     100.00000000
  90      88.00000000      98.00000000
  91      90.00000000     100.00000000
  92      90.00000000      98.00000000
  93      92.00000000     100.00000000
  94      92.00000000      98.00000000
  95      94.00000000     100.00000000
  96      94.00000000      98.00000000
  97      96.00000000     100.00000000
  98      96.00000000      98.00000000
  99      98.00000000     100.00000000
  100      98.00000000      98.00000000
  101     100.00000000     100.00000000
  102     100.00000000      98.00000000
  103       2.00000000      96.00000000
  104       0.00000000      96.00000000
  105       4.00000000      96.00000000
  106       6.00000000      96.00000000
  107       8.00000000      96.00000000
  108      10.00000000      96.00000000
  109      12.00000000      96.00000000
  110      14.00000000      96.00000000
  111      16.00000000      96.00000000
  112      18.00000000      96.00000000
  113      20.00000000      96.00000000
  114      22.00000000      96.00000000
  115      24.00000000      96.00000000
  116      26.00000000      96.00000000
  117      28.00000000      96.00000000
  118      30.00000000      96.00000000
  119      32.00000000      96.00000000
  120      34.00000000      96.00000000
  121      36.00000000      96.00000000
  122      38.00000000      96.00000000
  123      40.00000000      96.00000000
  124      42.00000000      96.00000000
  125      44.00000000      96.00000000
  126      46.00000000      96.00000000
  127      48.00000000      96.00000000
  128      50.00000000      96.00000000
  129      52.00000000      96.00000000
  130      54.00000000      96.00000000
  131      56.00000000      96.00000000
  132      58.00000000      96.00000000
  133      60.00000000      96.00000000
  134      62.00000000      96.00000000
  135      64.00000000      96.00000000
  136      66.00000000      96.00000000
  137      68.00000000      96.00000000
  138      70.00000000      96.00000000
  139      72.00000000      96.00000000
  140      74.00000000      96.00000000
  141      76.00000000      96.00000000
  142      78.00000000      96.00000000
  143      80.00000000      96.00000000
  144      82.00000000      96.00000000
  145      84.00000000      96.00000000
  146      86.00000000      96.00000000
  147      88.00000000      96.00000000
  148      90.00000000      96.00000000
  149      92.00000000      96.00000000
  150      94.00000000      96.00000000
  151      96.00000000      96.00000000
  152      98.00000000      96.00000000
  153     100.00000000      96.00000000
  154       2.00000000      94.00000000
  155       0.00000000      94.00000000
  156       4.00000000      94.00000000
  157       6.00000000      94.00000000
  158       8.00000000      94.00000000
  159      10.00000000      94.00000000
  160      12.00000000      94.00000000
  161      14.00000000      94.00000000
  162      16.00000000      94.00000000
  163      18.00000000      94.00000000
  164      20.00000000      94.00000000
  165      22.00000000      94.00000000
  166      24.00000000      94.00000000
  167      26.00000000      94.00000000
  168      28.00000000      94.00000000
  169      30.00000000      94.00000000
  170      32.00000000      94.00000000
  171      34.00000000      94.00000000
  172      36.00000000      94.00000000
  173      38.00000000      94.00000000
  174      40.00000000      94.00000000
  175      42.00000000      94.00000000
  176      44.00000000      94.00000000
  177      46.00000000      94.00000000
  178      48.00000000      94.00000000
  179      50.00000000      94.00000000
  180      52.00000000      94.00000000
  181      54.00000000      94.00000000
  182      56.00000000      94.00000000
  183      58.00000000      94.00000000
  184      60.00000000      94.00000000
  185      62.00000000      94.00000000
  186      64.00000000      94.00000000
  187      66.00000000      94.00000000
  188      68.00000000      94.00000000
  189      70.00000000      94.00000000
  190      72.00000000      94.00000000
  191      74.00000000      94.00000000
  192      76.00000000      94.00000000
  193      78.00000000      94.00000000
  194      80.00000000      94.00000000
  195      82.00000000      94.00000000
  196      84.00000000      94.00000000
  197      86.00000000      94.00000000
  198      88.00000000      94.00000000
  199      90.00000000      94.00000000
  200      92.00000000      94.00000000
  201      94.00000000      94.00000000
  202      96.00000000      94.00000000
  203      98.00000000      94.00000000
  204     100.00000000      94.00000000
  205       2.00000000      92.00000000
  206       0.00000000      92.00000000
  207       4.00000000      92.00000000
  208       6.00000000      92.00000000
  209       8.00000000      92.00000000
  210      10.00000000      92.00000000
  211      12.00000000      92.00000000
  212      14.00000000      92.00000000
  213      16.00000000      92.00000000
  214      18.00000000      92.00000000
  215      20.00000000      92.00000000
  216      22.00000000      92.00000000
  217      24.00000000      92.00000000
  218      26.00000000      92.00000000
  219      28.00000000      92.00000000
  220      30.00000000      92.00000000
  221      32.00000000      92.00000000
  222      34.00000000      92.00000000
  223      36.00000000      92.00000000
  224      38.00000000      92.00000000
  225      40.00000000      92.00000000
  226      42.00000000      92.00000000
  227      44.00000000      92.00000000
  228      46.00000000      92.00000000
  229      48.00000000      92.00000000
  230      50.00000000      92.00000000
  231      52.00000000      92.00000000
  232      54.00000000      92.00000000
  233      56.00000000      92.00000000
  234      58.00000000      92.00000000
  235      60.00000000      92.00000000
  236      62.00000000      92.00000000
  237      64.00000000      92.00000000
  238      66.00000000      92.00000000
  239      68.00000000      92.00000000
  240      70.00000000      92.00000000
  241      72.00000000      92.00000000
  242      74.00000000      92.00000000
  243      76.00000000      92.00000000
  244      78.00000000      92.00000000
  245      80.00000000      92.00000000
  246      82.00000000      92.00000000
  247      84.00000000      92.00000000
  248      86.00000000      92.00000000
  249      88.00000000      92.00000000
  250      90.00000000      92.00000000
  251      92.00000000      92.00000000
  252      94.00000000      92.00000000
  253      96.00000000      92.00000000
  254      98.00000000      92.00000000
  255     100.00000000      92.00000000
  256       2.00000000      90.00000000
  257       0.00000000      90.00000000
  258       4.00000000      90.00000000
  259       6.00000000      90.00000000
  260       8.00000000      90.00000000
  261      10.00000000      90.00000000
  262      12.00000000      90.00000000
  263      14.00000000      90.00000000
  264      16.00000000      90.00000000
  265      18.00000000      90.00000000
  266      20.00000000      90.00000000
  267      22.00000000      90.00000000
  268      24.00000000      90.00000000
  269      26.00000000      90.00000000
  270      28.00000000      90.00000000
  271      30.00000000      90.00000000
  272      32.00000000      90.00000000
  273      34.00000000      90.00000000
  274      36.00000000      90.00000000
  275      38.00000000      90.00000000
  276      40.00000000      90.00000000
  277      42.00000000      90.00000000
  278      44.00000000      90.00000000
  279      46.00000000      90.00000000
  280      48.00000000      90.00000000
  281      50.00000000      90.00000000
  282      52.00000000      90.00000000
  283      54.00000000      90.00000000
  284      56.00000000      90.00000000
  285      58.00000000      90.00000000
  286      60.00000000      90.00000000
  287      62.00000000      90.00000000
  288      64.00000000      90.00000000
  289      66.00000000      90.00000000
  290      68.00000000      90.00000000
  291      70.00000000      90.00000000
  292      72.00000000      90.00000000
  293      74.00000000      90.00000000
  294      76.00000000      90.00000000
  295      78.00000000      90.00000000
  296      80.00000000      90.00000000
  297      82.00000000      90.00000000
  298      84.00000000      90.00000000
  299      86.00000000      90.00000000
  300      88.00000000      90.00000000
  301      90.00000000      90.00000000
  302      92.00000000      90.00000000
  303      94.00000000      90.00000000
  304      96.00000000      90.00000000
  305      98.00000000      90.00000000
  306     100.00000000      90.00000000
  307       2.00000000      88.00000000
  308       0.00000000      88.00000000
  309       4.00000000      88.00000000
  310       6.00000000      88.00000000
  311       8.00000000      88.00000000
  312      10.00000000      88.00000000
  313      12.00000000      88.00000000
  314      14.00000000      88.00000000
  315      16.00000000      88.00000000
  316      18.00000000      88.00000000
  317      20.00000000      88.00000000
  318      22.00000000      88.00000000
  319      24.00000000      88.00000000
  320      26.00000000      88.00000000
  321      28.00000000      88.00000000
  322      30.00000000      88.00000000
  323      32.00000000      88.00000000
  324      34.00000000      88.00000000
  325      36.00000000      88.00000000
  326      38.00000000      88.00000000
  327      40.00000000      88.00000000
  328      42.00000000      88.00000000
  329      44.00000000      88.00000000
  330      46.00000000      88.00000000
  331      48.00000000      88.00000000
  332      50.00000000      88.00000000
  333      52.00000000      88.00000000
  334      54.00000000      88.00000000
  335      56.00000000      88.00000000
  336      58.00000000      88.00000000
  337      60.00000000      88.00000000
  338      62.00000000      88.00000000
  339      64.00000000      88.00000000
  340      66.00000000      88.00000000
  341      68.00000000      88.00000000
  342      70.00000000      88.00000000
  343      72.00000000      88.00000000
  344      74.00000000      88.00000000
  345      76.00000000      88.00000000
  346      78.00000000      88.00000000
  347      80.00000000      88.00000000
  348      82.00000000      88.00000000
  349      84.00000000      88.00000000
  350      86.00000000      88.00000000
  351      88.00000000      88.00000000
  352      90.00000000      88.00000000
  353      92.00000000      88.00000000
  354      94.00000000      88.00000000
  355      96.00000000      88.00000000
  356      98.00000000      88.00000000
  357     100.00000000      88.00000000
  358       2.00000000      86.00000000
  359       0.00000000      86.00000000
  360       4.00000000      86.00000000
  361       6.00000000      86.00000000
  362       8.00000000      86.00000000
  363      10.00000000      86.00000000
  364      12.00000000      86.00000000
  365      14.00000000      86.00000000
  366      16.00000000      86.00000000
  367      18.00000000      86.00000000
  368      20.00000000      86.00000000
  369      22.00000000      86.00000000
  370      24.00000000      86.00000000
  371      26.00000000      86.00000000
  372      28.00000000      86.00000000
  373      30.00000000      86.00000000
  374      32.00000000      86.00000000
  375      34.00000000      86.00000000
  376      36.00000000      86.00000000
  377      38.00000000      86.00000000
  378      40.00000000      86.00000000
  379      42.00000000      86.00000000
  380      44.00000000      86.00000000
  381      46.00000000      86.00000000
  382      48.00000000      86.00000000
  383      50.00000000      86.00000000
  384      52.00000000      86.00000000
  385      54.00000000      86.00000000
  386      56.00000000      86.00000000
  387      58.00000000      86.00000000
  388      60.00000000      86.00000000
  389      62.00000000      86.00000000
  390      64.00000000      86.00000000
  391      66.00000000      86.00000000
  392      68.00000000      86.00000000
  393      70.00000000      86.00000000
  394      72.00000000      86.00000000
  395      74.00000000      86.00000000
  396      76.00000000      86.00000000
  397      78.00000000      86.00000000
  398      80.00000000      86.00000000
  399      82.00000000      86.00000000
  400      84.00000000      86.00000000
  401      86.00000000      86.00000000
  402      88.00000000      86.00000000
  403      90.00000000      86.00000000
  404      92.00000000      86.00000000
  405      94.00000000      86.00000000
  406      96.00000000      86.00000000
  407      98.00000000      86.00000000
  408     100.00000000      86.00000000
  409       2.00000000      84.00000000
  410       0.00000000      84.00000000
  411       4.00000000      84.00000000
  412       6.00000000      84.00000000
  413       8.00000000      84.00000000
  414      10.00000000      84.00000000
  415      12.00000000      84.00000000
  416      14.00000000      84.00000000
  417      16.00000000      84.00000000
  418      18.00000000      84.00000000
  419      20.00000000      84.00000000
  420      22.00000000      84.00000000
  421      24.00000000      84.00000000
  422      26.00000000      84.00000000
  423      28.00000000      84.00000000
  424      30.00000000      84.00000000
  425      32.00000000      84.00000000
  426      34.00000000      84.00000000
  427      36.00000000      84.00000000
  428      38.00000000      84.00000000
  429      40.00000000      84.00000000
  430      42.00000000      84.00000000
  431      44.00000000      84.00000000
  432      46.00000000      84.00000000
  433      48.00000000      84.00000000
  434      50.00000000      84.00000000
  435      52.00000000      84.00000000
  436      54.00000000      84.00000000
  437      56.00000000      84.00000000
  438      58.00000000      84.00000000
  439      60.00000000      84.00000000
  440      62.00000000      84.00000000
  441      64.00000000      84.00000000
  442      66.00000000      84.00000000
  443      68.00000000      84.00000000
  444      70.00000000      84.00000000
  445      72.00000000      84.00000000
  446      74.00000000      84.00000000
  447      76.00000000      84.00000000
  448      78.00000000      84.00000000
  449      80.00000000      84.00000000
  450      82.00000000      84.00000000
  451      84.00000000      84.00000000
  452      86.00000000      84.00000000
  453      88.00000000      84.00000000
  454      90.00000000      84.00000000
  455      92.00000000      84.00000000
  456      94.00000000      84.00000000
  457      96.00000000      84.00000000
  458      98.00000000      84.00000000
  459     100.00000000      84.00000000
  460       2.00000000      82.00000000
  461       0.00000000      82.00000000
  462       4.00000000      82.00000000
  463       6.00000000      82.00000000
  464       8.00000000      82.00000000
  465      10.00000000      82.00000000
  466      12.00000000      82.00000000
  467      14.00000000      82.00000000
  468      16.00000000      82.00000000
  469      18.00000000      82.00000000
  470      20.00000000      82.00000000
  471      22.00000000      82.00000000
  472      24.00000000      82.00000000
  473      26.00000000      82.00000000
  474      28.00000000      82.00000000
  475      30.00000000      82.00000000
  476      32.00000000      82.00000000
  477      34.00000000      82.00000000
  478      36.00000000      82.00000000
  479      38.00000000      82.00000000
  480      40.00000000      82.00000000
  481      42.00000000      82.00000000
  482      44.00000000      82.00000000
  483      46.00000000      82.00000000
  484      48.00000000      82.00000000
  485      50.00000000      82.00000000
  486      52.00000000      82.00000000
  487      54.00000000      82.00000000
  488      56.00000000      82.00000000
  489      58.00000000      82.00000000
  490      60.00000000      82.00000000
  491      62.00000000      82.00000000
  492      64.00000000      82.00000000
  493      66.00000000      82.00000000
  494      68.00000000      82.00000000
  495      70.00000000      82.00000000
  496      72.00000000      82.00000000
  497      74.00000000      82.00000000
  498      76.00000000      82.00000000
  499      78.00000000      82.00000000
  500      80.00000000      82.00000000
  501      82.00000000      82.00000000
  502      84.00000000      82.00000000
  503      86.00000000      82.00000000
  504      88.00000000      82.00000000
  505      90.00000000      82.00000000
  506      92.00000000      82.00000000
  507      94.00000000      82.00000000
  508      96.00000000      82.00000000
  509      98.00000000      82.00000000
  510     100.00000000      82.00000000
  511       2.00000000      80.00000000
  512       0.00000000      80.00000000
  513       4.00000000      80.00000000
  514       6.00000000      80.00000000
  515       8.00000000      80.00000000
  516      10.00000000      80.00000000
  517      12.00000000      80.00000000
  518      14.00000000      80.00000000
  519      16.00000000      80.00000000
  520      18.00000000      80.00000000
  521      20.00000000      80.00000000
  522      22.00000000      80.00000000
  523      24.00000000      80.00000000
  524      26.00000000      80.00000000
  525      28.00000000      80.00000000
  526      30.00000000      80.00000000
  527      32.00000000      80.00000000
  528      34.00000000      80.00000000
  529      36.00000000      80.00000000
  530      38.00000000      80.00000000
  531      40.00000000      80.00000000
  532      42.00000000      80.00000000
  533      44.00000000      80.00000000
  534      46.00000000      80.00000000
  535      48.00000000      80.00000000
  536      50.00000000      80.00000000
  537      52.00000000      80.00000000
  538      54.00000000      80.00000000
  539      56.00000000      80.00000000
  540      58.00000000      80.00000000
  541      60.00000000      80.00000000
  542      62.00000000      80.00000000
  543      64.00000000      80.00000000
  544      66.00000000      80.00000000
  545      68.00000000      80.00000000
  546      70.00000000      80.00000000
  547      72.00000000      80.00000000
  548      74.00000000      80.00000000
  549      76.00000000      80.00000000
  550      78.00000000      80.00000000
  551      80.00000000      80.00000000
  552      82.00000000      80.00000000
  553      84.00000000      80.00000000
  554      86.00000000      80.00000000
  555      88.00000000      80.00000000
  556      90.00000000      80.00000000
  557      92.00000000      80.00000000
  558      94.00000000      80.00000000
  559      96.00000000      80.00000000
  560      98.00000000      80.00000000
  561     100.00000000      80.00000000
  562       2.00000000      78.00000000
  563       0.00000000      78.00000000
  564       4.00000000      78.00000000
  565       6.00000000      78.00000000
  566       8.00000000      78.00000000
  567      10.00000000      78.00000000
  568      12.00000000      78.00000000
  569      14.00000000      78.00000000
  570      16.00000000      78.00000000
  571      18.00000000      78.00000000
  572      20.00000000      78.00000000
  573      22.00000000      78.00000000
  574      24.00000000      78.00000000
  575      26.00000000      78.00000000
  576      28.00000000      78.00000000
  577      30.00000000      78.00000000
  578      32.00000000      78.00000000
  579      34.00000000      78.00000000
  580      36.00000000      78.00000000
  581      38.00000000      78.00000000
  582      40.00000000      78.00000000
  583      42.00000000      78.00000000
  584      44.00000000      78.00000000
  585      46.00000000      78.00000000
  586      48.00000000      78.00000000
  587      50.00000000      78.00000000
  588      52.00000000      78.00000000
  589      54.00000000      78.00000000
  590      56.00000000      78.00000000
  591      58.00000000      78.00000000
  592      60.00000000      78.00000000
  593      62.00000000      78.00000000
  594      64.00000000      78.00000000
  595      66.00000000      78.00000000
  596      68.00000000      78.00000000
  597      70.00000000      78.00000000
  598      72.00000000      78.00000000
  599      74.00000000      78.00000000
  600      76.00000000      78.00000000
  601      78.00000000      78.00000000
  602      80.00000000      78.00000000
  603      82.00000000      78.00000000
  604      84.00000000      78.00000000
  605      86.00000000      78.00000000
  606      88.00000000      78.00000000
  607      90.00000000      78.00000000
  608      92.00000000      78.00000000
  609      94.00000000      78.00000000
  610      96.00000000      78.00000000
  611      98.00000000      78.00000000
  612     100.00000000      78.00000000
  613       2.00000000      76.00000000
  614       0.00000000      76.00000000
  615       4.00000000      76.00000000
  616       6.00000000      76.00000000
  617       8.00000000      76.00000000
  618      10.00000000      76.00000000
  619      12.00000000      76.00000000
  620      14.00000000      76.00000000
  621      16.00000000      76.00000000
  622      18.00000000      76.00000000
  623      20.00000000      76.00000000
  624      22.00000000      76.00000000
  625      24.00000000      76.00000000
  626      26.00000000      76.00000000
  627      28.00000000      76.00000000
  628      30.00000000      76.00000000
  629      32.00000000      76.00000000
  630      34.00000000      76.00000000
  631      36.00000000      76.00000000
  632      38.00000000      76.00000000
  633      40.00000000      76.00000000
  634      42.00000000      76.00000000
  635      44.00000000      76.00000000
  636      46.00000000      76.00000000
  637      48.00000000      76.00000000
  638      50.00000000      76.00000000
  639      52.00000000      76.00000000
  640      54.00000000      76.00000000
  641      56.00000000      76.00000000
  642      58.00000000      76.00000000
  643      60.00000000      76.00000000
  644      62.00000000      76.00000000
  645      64.00000000      76.00000000
  646      66.00000000      76.00000000
  647      68.00000000      76.00000000
  648      70.00000000      76.00000000
  649      72.00000000      76.00000000
  650      74.00000000      76.00000000
  651      76.00000000      76.00000000
  652      78.00000000      76.00000000
  653      80.00000000      76.00000000
  654      82.00000000      76.00000000
  655      84.00000000      76.00000000
  656      86.00000000      76.00000000
  657      88.00000000      76.00000000
  658      90.00000000      76.00000000
  659      92.00000000      76.00000000
  660      94.00000000      76.00000000
  661      96.00000000      76.00000000
  662      98.00000000      76.00000000
  663     100.00000000      76.00000000
  664       2.00000000      74.00000000
  665       0.00000000      74.00000000
  666       4.00000000      74.00000000
  667       6.00000000      74.00000000
  668       8.00000000      74.00000000
  669      10.00000000      74.00000000
  670      12.00000000      74.00000000
  671      14.00000000      74.00000000
  672      16.00000000      74.00000000
  673      18.00000000      74.00000000
  674      20.00000000      74.00000000
  675      22.00000000      74.00000000
  676      24.00000000      74.00000000
  677      26.00000000      74.00000000
  678      28.00000000      74.00000000
  679      30.00000000      74.00000000
  680      32.00000000      74.00000000
  681      34.00000000      74.00000000
  682      36.00000000      74.00000000
  683      38.00000000      74.00000000
  684      40.00000000      74.00000000
  685      42.00000000      74.00000000
  686      44.00000000      74.00000000
  687      46.00000000      74.00000000
  688      48.00000000      74.00000000
  689      50.00000000      74.00000000
  690      52.00000000      74.00000000
  691      54.00000000      74.00000000
  692      56.00000000      74.00000000
  693      58.00000000      74.00000000
  694      60.00000000      74.00000000
  695      62.00000000      74.00000000
  696      64.00000000      74.00000000
  697      66.00000000      74.00000000
  698      68.00000000      74.00000000
  699      70.00000000      74.00000000
  700      72.00000000      74.00000000
  701      74.00000000      74.00000000
  702      76.00000000      74.00000000
  703      78.00000000      74.00000000
  704      80.00000000      74.00000000
  705      82.00000000      74.00000000
  706      84.00000000      74.00000000
  707      86.00000000      74.00000000
  708      88.00000000      74.00000000
  709      90.00000000      74.00000000
  710      92.00000000      74.00000000
  711      94.00000000      74.00000000
  712      96.00000000      74.00000000
  713      98.00000000      74.00000000
  714     100.00000000      74.00000000
  715       2.00000000      72.00000000
  716       0.00000000      72.00000000
  717       4.00000000      72.00000000
  718       6.00000000      72.00000000
  719       8.00000000      72.00000000
  720      10.00000000      72.00000000
  721      12.00000000      72.00000000
  722      14.00000000      72.00000000
  723      16.00000000      72.00000000
  724      18.00000000      72.00000000
  725      20.00000000      72.00000000
  726      22.00000000      72.00000000
  727      24.00000000      72.00000000
  728      26.00000000      72.00000000
  729      28.00000000      72.00000000
  730      30.00000000      72.00000000
  731      32.00000000      72.00000000
  732      34.00000000      72.00000000
  733      36.00000000      72.00000000
  734      38.00000000      72.00000000
  735      40.00000000      72.00000000
  736      42.00000000      72.00000000
  737      44.00000000      72.00000000
  738      46.00000000      72.00000000
  739      48.00000000      72.00000000
  740      50.00000000      72.00000000
  741      52.00000000      72.00000000
  742      54.00000000      72.00000000
  743      56.00000000      72.00000000
  744      58.00000000      72.00000000
  745      60.00000000      72.00000000