# File generated by Flopy version 3.10.0.dev5 on 01/30/2026 at 12:54:31.
BEGIN options
END options

BEGIN timing
  TDIS6  gwf-hecht-mendez.tdis
END timing

BEGIN models
  gwf6  gwf-hecht-mendez.nam  gwf-hecht-mendez
END models

BEGIN exchanges
END exchanges

BEGIN solutiongroup  1
  ims6  gwf-hecht-mendez.ims  gwf-hecht-mendez
END solutiongroup  1

