# File generated by Flopy version 3.10.0.dev5 on 01/30/2026 at 12:54:29.
BEGIN options
  BUDGET  FILEOUT  gwt-inner.cbc
  CONCENTRATION  FILEOUT  gwt-inner.ucn
  CONCENTRATION  PRINT_FORMAT  COLUMNS  10  WIDTH  15  DIGITS  6  GENERAL
END options

BEGIN period  1
  SAVE  CONCENTRATION  LAST
  SAVE  CONCENTRATION  STEPS  1  250  375  500
  SAVE  BUDGET  LAST
  PRINT  CONCENTRATION  LAST
  PRINT  BUDGET  LAST
END period  1

