# File generated by Flopy version 3.10.0.dev5 on 01/30/2026 at 12:53:38.
BEGIN options
END options

BEGIN griddata
  alh
    CONSTANT       0.00000000
  ath1
    CONSTANT       0.00000000
  ktw
    CONSTANT   51131.52000000
  kts
    CONSTANT   23328.00000000
END griddata

