# File generated by Flopy version 3.10.0.dev5 on 01/30/2026 at 12:53:38.
BEGIN options
  SAVE_FLOWS
END options

BEGIN packages
  DIS6  gwe-danckwerts.dis  dis
  IC6  gwe-danckwerts.ic  ic
  ADV6  gwe-danckwerts.adv  adv
  CND6  gwe-danckwerts.cnd  cnd
  EST6  gwe-danckwerts.est  est
  SSM6  gwe-danckwerts.ssm  ssm
  UZE6  gwe-danckwerts.uze  uze
  OC6  gwe-danckwerts.oc  oc
END packages

