# File generated by Flopy version 3.10.0.dev5 on 01/30/2026 at 12:54:01.
BEGIN options
END options

BEGIN dimensions
  MAXBOUND  4
END dimensions

BEGIN period  1
  1 1 1 5.00000000E-02
  1 1 2 5.00000000E-02
  1 2 1 5.00000000E-02
  1 2 2 5.00000000E-02
END period  1

