# File generated by Flopy version 3.10.0.dev5 on 01/30/2026 at 12:54:01.
BEGIN options
  HEAD  FILEOUT  ex-gwf-nwt-p02.hds
END options

BEGIN period  1
  SAVE  HEAD  LAST
END period  1

