# File generated by Flopy version 3.8.0 on 05/07/2026 at 20:44:22.
BEGIN options
  SAVE_FLOWS
END options

BEGIN griddata
  icelltype
    CONSTANT  0
  k
    INTERNAL  FACTOR  1.0
         9.52869031       3.03892679       6.34978130       4.85477816       7.87726618       1.02574533       4.21681313       9.18725397       5.10472887       9.83622438
         8.80621291       9.87424760       9.30940036       3.73323983       8.61493141       2.09099772       8.07018657       3.25454549       1.86426739       9.49141933
         8.43445132       5.66492620       8.86150378       6.20538121       5.05076054       7.12141282       4.77483059       6.76354118       6.47790663       1.94890697
         9.69440130       7.82830371       7.11677651       3.96413293       1.23809395       8.23294347       9.75546271       3.54644303       6.84167206       3.39017590
         2.68920228       4.77143086       6.99399011       5.65670620       8.69043267       2.53910178       9.80342664       3.71137351       3.09204185       8.12497326
         8.95572821       9.88568681       1.14457249       2.84049865       6.81002980       5.59604818       2.89295875       3.78040667       1.15846520       6.80396991
         5.75799996       6.50235163       3.69212935       9.00852089       7.47666151       9.57620476       4.57396340       9.89783024       5.07239639       7.55265616
         4.09713754       9.24540416       1.57974765       1.08364711       5.29536367       5.23233842       1.28474409       9.21788156       9.37237448       5.62872661
         5.88992621       5.97926960       8.60172498       9.25572266       3.20223519       9.16075893       7.20106359       7.50768820       3.66934486       5.75775459
         2.55658305       4.49893350       1.04945194       2.42959505       7.89672800       5.64761543       7.10774144       1.61666737       8.81916075       4.50022621
END griddata

