# File generated by Flopy version 3.10.0.dev5 on 01/30/2026 at 12:54:25.
BEGIN options
  SAVE_FLOWS
END options

BEGIN packages
  MST6  gwt_t_sin2_cen.mst  mst
  SSM6  gwt_t_sin2_cen.ssm  ssm
  ADV6  gwt_t_sin2_cen.adv  adv
  FMI6  gwt_t_sin2_cen.fmi  fmi
  OC6  gwt_t_sin2_cen.oc  oc
  DISV6  gwt_t_sin2_cen.disv  disv
  CNC6  gwt_t_sin2_cen.cnc  cnc_0
  IC6  gwt_t_sin2_cen.ic  ic
END packages

