# File generated by Flopy version 3.10.0.dev5 on 01/30/2026 at 12:54:24.
BEGIN options
END options

BEGIN dimensions
  MAXBOUND  196
END dimensions

BEGIN period  1
  1 1 0.00000000E+00
  1 2 -1.76776695E-01
  1 3 -1.76776695E-01
  1 4 -1.76776695E-01
  1 5 -1.76776695E-01
  1 6 -1.76776695E-01
  1 7 -1.76776695E-01
  1 8 -1.76776695E-01
  1 9 -1.76776695E-01
  1 10 -1.76776695E-01
  1 11 -1.76776695E-01
  1 12 -1.76776695E-01
  1 13 -1.76776695E-01
  1 14 -1.76776695E-01
  1 15 -1.76776695E-01
  1 16 -1.76776695E-01
  1 17 -1.76776695E-01
  1 18 -1.76776695E-01
  1 19 -1.76776695E-01
  1 20 -1.76776695E-01
  1 21 -1.76776695E-01
  1 22 -1.76776695E-01
  1 23 -1.76776695E-01
  1 24 -1.76776695E-01
  1 25 -1.76776695E-01
  1 26 -1.76776695E-01
  1 27 -1.76776695E-01
  1 28 -1.76776695E-01
  1 29 -1.76776695E-01
  1 30 -1.76776695E-01
  1 31 -1.76776695E-01
  1 32 -1.76776695E-01
  1 33 -1.76776695E-01
  1 34 -1.76776695E-01
  1 35 -1.76776695E-01
  1 36 -1.76776695E-01
  1 37 -1.76776695E-01
  1 38 -1.76776695E-01
  1 39 -1.76776695E-01
  1 40 -1.76776695E-01
  1 41 -1.76776695E-01
  1 42 -1.76776695E-01
  1 43 -1.76776695E-01
  1 44 -1.76776695E-01
  1 45 -1.76776695E-01
  1 46 -1.76776695E-01
  1 47 -1.76776695E-01
  1 48 -1.76776695E-01
  1 49 -1.76776695E-01
  1 50 -3.53553391E-01
  1 51 1.76776695E-01
  1 100 -1.76776695E-01
  1 101 1.76776695E-01
  1 150 -1.76776695E-01
  1 151 1.76776695E-01
  1 200 -1.76776695E-01
  1 201 1.76776695E-01
  1 250 -1.76776695E-01
  1 251 1.76776695E-01
  1 300 -1.76776695E-01
  1 301 1.76776695E-01
  1 350 -1.76776695E-01
  1 351 1.76776695E-01
  1 400 -1.76776695E-01
  1 401 1.76776695E-01
  1 450 -1.76776695E-01
  1 451 1.76776695E-01
  1 500 -1.76776695E-01
  1 501 1.76776695E-01
  1 550 -1.76776695E-01
  1 551 1.76776695E-01
  1 600 -1.76776695E-01
  1 601 1.76776695E-01
  1 650 -1.76776695E-01
  1 651 1.76776695E-01
  1 700 -1.76776695E-01
  1 701 1.76776695E-01
  1 750 -1.76776695E-01
  1 751 1.76776695E-01
  1 800 -1.76776695E-01
  1 801 1.76776695E-01
  1 850 -1.76776695E-01
  1 851 1.76776695E-01
  1 900 -1.76776695E-01
  1 901 1.76776695E-01
  1 950 -1.76776695E-01
  1 951 1.76776695E-01
  1 1000 -1.76776695E-01
  1 1001 1.76776695E-01
  1 1050 -1.76776695E-01
  1 1051 1.76776695E-01
  1 1100 -1.76776695E-01
  1 1101 1.76776695E-01
  1 1150 -1.76776695E-01
  1 1151 1.76776695E-01
  1 1200 -1.76776695E-01
  1 1201 1.76776695E-01
  1 1250 -1.76776695E-01
  1 1251 1.76776695E-01
  1 1300 -1.76776695E-01
  1 1301 1.76776695E-01
  1 1350 -1.76776695E-01
  1 1351 1.76776695E-01
  1 1400 -1.76776695E-01
  1 1401 1.76776695E-01
  1 1450 -1.76776695E-01
  1 1451 1.76776695E-01
  1 1500 -1.76776695E-01
  1 1501 1.76776695E-01
  1 1550 -1.76776695E-01
  1 1551 1.76776695E-01
  1 1600 -1.76776695E-01
  1 1601 1.76776695E-01
  1 1650 -1.76776695E-01
  1 1651 1.76776695E-01
  1 1700 -1.76776695E-01
  1 1701 1.76776695E-01
  1 1750 -1.76776695E-01
  1 1751 1.76776695E-01
  1 1800 -1.76776695E-01
  1 1801 1.76776695E-01
  1 1850 -1.76776695E-01
  1 1851 1.76776695E-01
  1 1900 -1.76776695E-01
  1 1901 1.76776695E-01
  1 1950 -1.76776695E-01
  1 1951 1.76776695E-01
  1 2000 -1.76776695E-01
  1 2001 1.76776695E-01
  1 2050 -1.76776695E-01
  1 2051 1.76776695E-01
  1 2100 -1.76776695E-01
  1 2101 1.76776695E-01
  1 2150 -1.76776695E-01
  1 2151 1.76776695E-01
  1 2200 -1.76776695E-01
  1 2201 1.76776695E-01
  1 2250 -1.76776695E-01
  1 2251 1.76776695E-01
  1 2300 -1.76776695E-01
  1 2301 1.76776695E-01
  1 2350 -1.76776695E-01
  1 2351 1.76776695E-01
  1 2400 -1.76776695E-01
  1 2401 1.76776695E-01
  1 2450 -1.76776695E-01
  1 2451 3.53553391E-01
  1 2452 1.76776695E-01
  1 2453 1.76776695E-01
  1 2454 1.76776695E-01
  1 2455 1.76776695E-01
  1 2456 1.76776695E-01
  1 2457 1.76776695E-01
  1 2458 1.76776695E-01
  1 2459 1.76776695E-01
  1 2460 1.76776695E-01
  1 2461 1.76776695E-01
  1 2462 1.76776695E-01
  1 2463 1.76776695E-01
  1 2464 1.76776695E-01
  1 2465 1.76776695E-01
  1 2466 1.76776695E-01
  1 2467 1.76776695E-01
  1 2468 1.76776695E-01
  1 2469 1.76776695E-01
  1 2470 1.76776695E-01
  1 2471 1.76776695E-01
  1 2472 1.76776695E-01
  1 2473 1.76776695E-01
  1 2474 1.76776695E-01
  1 2475 1.76776695E-01
  1 2476 1.76776695E-01
  1 2477 1.76776695E-01
  1 2478 1.76776695E-01
  1 2479 1.76776695E-01
  1 2480 1.76776695E-01
  1 2481 1.76776695E-01
  1 2482 1.76776695E-01
  1 2483 1.76776695E-01
  1 2484 1.76776695E-01
  1 2485 1.76776695E-01
  1 2486 1.76776695E-01
  1 2487 1.76776695E-01
  1 2488 1.76776695E-01
  1 2489 1.76776695E-01
  1 2490 1.76776695E-01
  1 2491 1.76776695E-01
  1 2492 1.76776695E-01
  1 2493 1.76776695E-01
  1 2494 1.76776695E-01
  1 2495 1.76776695E-01
  1 2496 1.76776695E-01
  1 2497 1.76776695E-01
  1 2498 1.76776695E-01
  1 2499 1.76776695E-01
  1 2500 0.00000000E+00
END period  1

