# File generated by Flopy version 3.10.0 on 05/05/2026 at 10:32:37.
BEGIN options
END options

BEGIN griddata
  icelltype
    CONSTANT  0
  k
    INTERNAL  FACTOR  1.0
    1.05092572E-05  9.86268716E-06  1.06691238E-05  1.16451301E-05  9.76856674E-06  9.76858278E-06  1.17107401E-05  1.07976505E-05  9.54137547E-06  1.05575485E-05
    9.54715614E-06  9.54494903E-06  1.02449133E-05  8.25861641E-06  8.41565204E-06  9.45322866E-06  9.03677155E-06  1.03192370E-05  9.13198134E-06  8.68289261E-06
    1.15785005E-05  9.77675337E-06  1.00677567E-05  8.67209392E-06  9.47016964E-06  1.01115401E-05  8.91277584E-06  1.03828447E-05  9.41704386E-06  9.71251945E-06
    9.41603825E-06  1.20349259E-05  9.98651188E-06  8.99630556E-06  1.08573208E-05  8.85073696E-06  1.02110601E-05  8.22039351E-06  8.75623912E-06  1.01988117E-05
    1.07664170E-05  1.01728451E-05  9.88501787E-06  9.70338432E-06  8.62558593E-06  9.30545393E-06  9.54980959E-06  1.11150197E-05  1.03495902E-05  8.38363069E-06
    1.03293927E-05  9.62223787E-06  9.34548083E-06  1.06307710E-05  1.10860221E-05  1.09760223E-05  9.19503202E-06  9.69551934E-06  1.03368113E-05  1.10247154E-05
    9.53212497E-06  9.81605387E-06  8.95266806E-06  8.87256943E-06  1.08464482E-05  1.14525120E-05  9.92824853E-06  1.10556143E-05  1.03682546E-05  9.37524887E-06
    1.03680053E-05  1.16626188E-05  9.96423806E-06  1.16936909E-05  7.69530638E-06  1.08566234E-05  1.00874270E-05  9.70541870E-06  1.00921831E-05  8.19749157E-06
    9.78272333E-06  1.03635656E-05  1.15926873E-05  9.49493094E-06  9.22332621E-06  9.51062304E-06  1.09586084E-05  1.03342147E-05  9.48402755E-06  1.05266679E-05
    1.00975503E-05  1.10171108E-05  9.32202410E-06  9.67764782E-06  9.61547979E-06  8.63854010E-06  1.03005482E-05  1.02644926E-05  1.00051148E-05  9.76814303E-06
END griddata

