# File generated by Flopy version 3.10.0 on 05/05/2026 at 10:32:37.
BEGIN options
  BUDGET  FILEOUT  base_model.cbc
  HEAD  FILEOUT  base_model.hds
END options

BEGIN period  1
  SAVE  HEAD  ALL
  SAVE  BUDGET  ALL
  PRINT  BUDGET  LAST
END period  1

