# File generated by Flopy version 3.10.0 on 05/05/2026 at 10:32:37.
BEGIN options
END options

BEGIN griddata
  strt
    CONSTANT       7.50000000
END griddata

