# File generated by Flopy version 3.10.0 on 05/05/2026 at 10:32:37.
BEGIN options
  SAVE_FLOWS
END options

BEGIN packages
  DIS6  base_model.dis  dis
  NPF6  base_model.npf  npf
  IC6  base_model.ic  ic
  CHD6  base_model.chd  chd_0
  OC6  base_model.oc  oc
END packages

