# File generated by Flopy version 3.10.0 on 05/05/2026 at 10:32:37.
BEGIN options
  PRINT_OPTION  summary
  COMPLEXITY  moderate
END options

BEGIN nonlinear
  OUTER_HCLOSE  1.00000000E-06
END nonlinear

BEGIN linear
  INNER_HCLOSE  1.00000000E-06
END linear

