# File generated by Flopy version 3.10.0 on 05/05/2026 at 10:32:37.
BEGIN options
END options

BEGIN dimensions
  NLAY  1
  NROW  10
  NCOL  10
END dimensions

BEGIN griddata
  delr
    CONSTANT     100.00000000
  delc
    CONSTANT     100.00000000
  top
    CONSTANT     100.00000000
  botm
    CONSTANT       0.00000000
END griddata

