# File generated by Flopy version 3.10.0 on 05/05/2026 at 10:32:37.
BEGIN options
END options

BEGIN timing
  TDIS6  base_model.tdis
END timing

BEGIN models
  gwf6  base_model.nam  base_model
END models

BEGIN exchanges
END exchanges

BEGIN solutiongroup  1
  ims6  base_model.ims  base_model
END solutiongroup  1

