# File generated by Flopy version 3.10.0.dev5 on 01/30/2026 at 12:54:32.
BEGIN options
END options

BEGIN griddata
  diffc
    CONSTANT  1.84000000E-06
  alh
    CONSTANT       0.50000000
  ath1
    CONSTANT       0.05000000
  atv
    CONSTANT       0.05000000
END griddata

