# File generated by Flopy version 3.8.0 on 05/07/2026 at 20:44:18.
BEGIN options
  SAVE_FLOWS
END options

BEGIN griddata
  icelltype
    CONSTANT  0
  k
    INTERNAL  FACTOR  1.0
         9.55409542       3.61474612       8.81440416       8.06771124       4.34596710       4.51988832       8.34769466       6.97237387       8.71981079       7.67329108
         6.98835159       7.24377823       3.11055580       9.41908586       7.25923136       6.34231602       6.32966841       8.82118081       9.14494515       5.79809330
         1.42605919       7.00211328       8.00618631       9.85788627       1.29259146       2.46320286       8.72263324       4.34444917       9.31643184       8.29985266
         6.18036184       6.14953591       9.74629510       7.57924791       2.90427547       2.87224154       7.39849127       2.04926101       2.24904885       2.14720954
         7.18919569       3.32552654       4.12964131       1.83661206       6.72845627       4.98645613       5.62229360       1.81171765       6.21220183       9.98230021
         1.58818699       5.00640426       7.81419956       5.75856082       7.83370733       5.59836188       9.86002964       6.39157427       3.91311881       9.99568711
         7.47314608       5.43275210       2.62545336       7.75294732       6.13370304       7.22394967       2.16310667       9.61692707       2.42488205       5.76170276
         5.45738244       8.75626411       5.97628669       4.65598001       5.57231322       6.36222617       6.74484735       8.54206979       7.94707971       7.77503113
         7.78411508       3.00504318       2.26146539       8.67270138       6.97446290       7.84273129       7.93659243       1.33023475       5.16548502       4.62828642
         6.34510864       2.37258003       4.13085211       2.40256839       4.92492081       4.36279555       2.59083824       4.30351971       9.21368502       1.95478522
END griddata

