# File generated by Flopy version 3.10.0.dev5 on 01/30/2026 at 12:54:25.
BEGIN options
  SAVE_FLOWS
END options

BEGIN packages
  MST6  gwt_s_sin2_tvd.mst  mst
  SSM6  gwt_s_sin2_tvd.ssm  ssm
  ADV6  gwt_s_sin2_tvd.adv  adv
  FMI6  gwt_s_sin2_tvd.fmi  fmi
  OC6  gwt_s_sin2_tvd.oc  oc
  DISV6  gwt_s_sin2_tvd.disv  disv
  CNC6  gwt_s_sin2_tvd.cnc  cnc_0
  IC6  gwt_s_sin2_tvd.ic  ic
END packages

