# File generated by Flopy version 3.10.0.dev5 on 01/30/2026 at 12:55:16.
BEGIN options
END options

BEGIN griddata
  porosity
    CONSTANT       0.10000000
  izone  LAYERED
    INTERNAL  FACTOR  1
      0  0  0  0  0  0  0  0  0  0  0  0  0  0  0  0  0  0  0  2
      0  0  0  0  0  0  0  0  0  0  0  0  0  0  0  0  0  0  0  2
      0  0  0  0  0  0  0  0  0  0  0  0  0  0  0  0  0  0  0  2
      0  0  0  0  0  0  0  0  0  0  0  0  0  0  0  0  0  0  0  2
      0  0  0  0  0  0  0  0  0  0  0  0  0  0  0  0  0  0  0  2
      0  0  0  0  0  0  0  0  0  0  0  0  0  0  0  0  0  0  0  2
      0  0  0  0  0  0  0  0  0  0  0  0  0  0  0  0  0  0  0  2
      0  0  0  0  0  0  0  0  0  0  0  0  0  0  0  0  0  0  0  2
      0  0  0  0  0  0  0  0  0  0  0  0  0  0  0  0  0  0  0  2
      0  0  0  0  0  0  0  0  0  0  0  0  0  0  0  0  0  0  0  2
      0  0  0  0  0  0  0  0  0  0  0  0  0  0  0  0  0  0  0  2
      0  0  0  0  0  0  0  0  0  0  0  0  0  0  0  0  0  0  0  2
      0  0  0  0  0  0  0  0  0  0  0  0  0  0  0  0  0  0  0  2
      0  0  0  0  0  0  0  0  0  0  0  0  0  0  0  0  0  0  0  2
      0  0  0  0  0  0  0  0  0  0  0  0  0  0  0  0  0  0  0  2
      0  0  0  0  0  0  0  0  0  0  0  0  0  0  0  0  0  0  0  2
      0  0  0  0  0  0  0  0  0  0  0  0  0  0  0  0  0  0  0  2
      0  0  0  0  0  0  0  0  0  0  0  0  0  0  0  0  0  0  0  2
      0  0  0  0  0  0  0  0  0  0  0  0  0  0  0  0  0  0  0  2
      0  0  0  0  0  0  0  0  0  0  0  0  0  0  0  0  0  0  0  2
      0  0  0  0  0  0  0  0  0  0  0  0  0  0  0  0  0  0  0  2
    INTERNAL  FACTOR  1
      0  0  0  0  0  0  0  0  0  0  0  0  0  0  0  0  0  0  0  0
      0  0  0  0  0  0  0  0  0  0  0  0  0  0  0  0  0  0  0  0
      0  0  0  0  0  0  0  0  0  0  0  0  0  0  0  0  0  0  0  0
      0  0  0  0  0  0  0  0  0  0  0  0  0  0  0  0  0  0  0  0
      0  0  0  0  0  0  0  0  0  0  0  0  0  0  0  0  0  0  0  0
      0  0  0  0  0  0  0  0  0  0  0  0  0  0  0  0  0  0  0  0
      0  0  0  0  0  0  0  0  0  0  0  0  0  0  0  0  0  0  0  0
      0  0  0  0  0  0  0  0  0  0  0  0  0  0  0  0  0  0  0  0
      0  0  0  0  0  0  0  0  0  0  0  0  0  0  0  0  0  0  0  0
      0  0  0  0  0  0  0  0  0  0  0  0  0  0  0  0  0  0  0  0
      0  0  0  0  0  0  0  0  0  0  0  0  0  0  0  0  0  0  0  0
      0  0  0  0  0  0  0  0  0  0  0  0  0  0  0  0  0  0  0  0
      0  0  0  0  0  0  0  0  0  0  0  0  0  0  0  0  0  0  0  0
      0  0  0  0  0  0  0  0  0  0  0  0  0  0  0  0  0  0  0  0
      0  0  0  0  0  0  0  0  0  0  0  0  0  0  0  0  0  0  0  0
      0  0  0  0  0  0  0  0  0  0  0  0  0  0  0  0  0  0  0  0
      0  0  0  0  0  0  0  0  0  0  0  0  0  0  0  0  0  0  0  0
      0  0  0  0  0  0  0  0  0  0  0  0  0  0  0  0  0  0  0  0
      0  0  0  0  0  0  0  0  0  0  0  0  0  0  0  0  0  0  0  0
      0  0  0  0  0  0  0  0  0  0  0  0  0  0  0  0  0  0  0  0
      0  0  0  0  0  0  0  0  0  0  0  0  0  0  0  0  0  0  0  0
    INTERNAL  FACTOR  1
      0  0  0  0  0  0  0  0  0  0  0  0  0  0  0  0  0  0  0  0
      0  0  0  0  0  0  0  0  0  0  0  0  0  0  0  0  0  0  0  0
      0  0  0  0  0  0  0  0  0  0  0  0  0  0  0  0  0  0  0  0
      0  0  0  0  0  0  0  0  0  0  0  0  0  0  0  0  0  0  0  0
      0  0  0  0  0  0  0  0  0  0  0  0  0  0  0  0  0  0  0  0
      0  0  0  0  0  0  0  0  0  0  0  0  0  0  0  0  0  0  0  0
      0  0  0  0  0  0  0  0  0  0  0  0  0  0  0  0  0  0  0  0
      0  0  0  0  0  0  0  0  0  0  0  0  0  0  0  0  0  0  0  0
      0  0  0  0  0  0  0  0  0  0  0  0  0  0  0  0  0  0  0  0
      0  0  0  0  0  0  0  0  0  0  0  0  0  0  0  0  0  0  0  0
      0  0  0  0  0  0  0  0  0  1  0  0  0  0  0  0  0  0  0  0
      0  0  0  0  0  0  0  0  0  0  0  0  0  0  0  0  0  0  0  0
      0  0  0  0  0  0  0  0  0  0  0  0  0  0  0  0  0  0  0  0
      0  0  0  0  0  0  0  0  0  0  0  0  0  0  0  0  0  0  0  0
      0  0  0  0  0  0  0  0  0  0  0  0  0  0  0  0  0  0  0  0
      0  0  0  0  0  0  0  0  0  0  0  0  0  0  0  0  0  0  0  0
      0  0  0  0  0  0  0  0  0  0  0  0  0  0  0  0  0  0  0  0
      0  0  0  0  0  0  0  0  0  0  0  0  0  0  0  0  0  0  0  0
      0  0  0  0  0  0  0  0  0  0  0  0  0  0  0  0  0  0  0  0
      0  0  0  0  0  0  0  0  0  0  0  0  0  0  0  0  0  0  0  0
      0  0  0  0  0  0  0  0  0  0  0  0  0  0  0  0  0  0  0  0
END griddata

