# File generated by Flopy version 3.10.0.dev5 on 01/30/2026 at 12:55:15.
BEGIN options
END options

BEGIN griddata
  strt  LAYERED
    INTERNAL  FACTOR  1.0
           1.62500000       1.62500000       1.62500000       1.62500000       1.62500000       1.62500000       1.62500000       1.62500000       1.62500000       1.62500000       1.62500000       1.62500000       1.62500000       1.62500000       1.62500000       1.62500000       1.62500000       1.62500000       1.62500000       1.62500000       1.62500000       1.62500000       1.62500000       1.62500000       1.62500000       1.62500000       1.62500000       1.62500000       1.62500000       1.62500000       1.62500000       1.62500000       1.62500000       1.62500000       1.62500000       1.62500000       1.62500000       1.62500000       1.62500000       1.62500000
    INTERNAL  FACTOR  1.0
           1.62500000       1.62500000       1.62500000       1.62500000       1.62500000       1.62500000       1.62500000       1.62500000       1.62500000       1.62500000       1.62500000       1.62500000       1.62500000       1.62500000       1.62500000       1.62500000       1.62500000       1.62500000       1.62500000       1.62500000       1.62500000       1.62500000       1.62500000       1.62500000       1.62500000       1.62500000       1.62500000       1.62500000       1.62500000       1.62500000       1.62500000       1.62500000       1.62500000       1.62500000       1.62500000       1.62500000       1.62500000       1.62500000       1.62500000       1.62500000
    INTERNAL  FACTOR  1.0
           1.62500000       1.62500000       1.62500000       1.62500000       1.62500000       1.62500000       1.62500000       1.62500000       1.62500000       1.62500000       1.62500000       1.62500000       1.62500000       1.62500000       1.62500000       1.62500000       1.62500000       1.62500000       1.62500000       1.62500000       1.62500000       1.62500000       1.62500000       1.62500000       1.62500000       1.62500000       1.62500000       1.62500000       1.62500000       1.62500000       1.62500000       1.62500000       1.62500000       1.62500000       1.62500000       1.62500000       1.62500000       1.62500000       1.62500000       1.62500000
    INTERNAL  FACTOR  1.0
           1.62500000       1.62500000       1.62500000       1.62500000       1.62500000       1.62500000       1.62500000       1.62500000       1.62500000       1.62500000       1.62500000       1.62500000       1.62500000       1.62500000       1.62500000       1.62500000       1.62500000       1.62500000       1.62500000       1.62500000       1.62500000       1.62500000       1.62500000       1.62500000       1.62500000       1.62500000       1.62500000       1.62500000       1.62500000       1.62500000       1.62500000       1.62500000       1.62500000       1.62500000       1.62500000       1.62500000       1.62500000       1.62500000       1.62500000       1.62500000
    INTERNAL  FACTOR  1.0
           1.62500000       1.62500000       1.62500000       1.62500000       1.62500000       1.62500000       1.62500000       1.62500000       1.62500000       1.62500000       1.62500000       1.62500000       1.62500000       1.62500000       1.62500000       1.62500000       1.62500000       1.62500000       1.62500000       1.62500000       1.62500000       1.62500000       1.62500000       1.62500000       1.62500000       1.62500000       1.62500000       1.62500000       1.62500000       1.62500000       1.62500000       1.62500000       1.62500000       1.62500000       1.62500000       1.62500000       1.62500000       1.62500000       1.62500000       1.62500000
    INTERNAL  FACTOR  1.0
           1.62500000       1.62500000       1.62500000       1.62500000       1.62500000       1.62500000       1.62500000       1.62500000       1.62500000       1.62500000       1.62500000       1.62500000       1.62500000       1.62500000       1.62500000       1.62500000       1.62500000       1.62500000       1.62500000       1.62500000       1.62500000       1.62500000       1.62500000       1.62500000       1.62500000       1.62500000       1.62500000       1.62500000       1.62500000       1.62500000       1.62500000       1.62500000       1.62500000       1.62500000       1.62500000       1.62500000       1.62500000       1.62500000       1.62500000       1.62500000
    INTERNAL  FACTOR  1.0
           1.62500000       1.62500000       1.62500000       1.62500000       1.62500000       1.62500000       1.62500000       1.62500000       1.62500000       1.62500000       1.62500000       1.62500000       1.62500000       1.62500000       1.62500000       1.62500000       1.62500000       1.62500000       1.62500000       1.62500000       1.62500000       1.62500000       1.62500000       1.62500000       1.62500000       1.62500000       1.62500000       1.62500000       1.62500000       1.62500000       1.62500000       1.62500000       1.62500000       1.62500000       1.62500000       1.62500000       1.62500000       1.62500000       1.62500000       1.62500000
    INTERNAL  FACTOR  1.0
           1.62500000       1.62500000       1.62500000       1.62500000       1.62500000       1.62500000       1.62500000       1.62500000       1.62500000       1.62500000       1.62500000       1.62500000       1.62500000       1.62500000       1.62500000       1.62500000       1.62500000       1.62500000       1.62500000       1.62500000       1.62500000       1.62500000       1.62500000       1.62500000       1.62500000       1.62500000       1.62500000       1.62500000       1.62500000       1.62500000       1.62500000       1.62500000       1.62500000       1.62500000       1.62500000       1.62500000       1.62500000       1.62500000       1.62500000       1.62500000
    INTERNAL  FACTOR  1.0
           1.62500000       1.62500000       1.62500000       1.62500000       1.62500000       1.62500000       1.62500000       1.62500000       1.62500000       1.62500000       1.62500000       1.62500000       1.62500000       1.62500000       1.62500000       1.62500000       1.62500000       1.62500000       1.62500000       1.62500000       1.62500000       1.62500000       1.62500000       1.62500000       1.62500000       1.62500000       1.62500000       1.62500000       1.62500000       1.62500000       1.62500000       1.62500000       1.62500000       1.62500000       1.62500000       1.62500000       1.62500000       1.62500000       1.62500000       1.62500000
    INTERNAL  FACTOR  1.0
           1.62500000       1.62500000       1.62500000       1.62500000       1.62500000       1.62500000       1.62500000       1.62500000       1.62500000       1.62500000       1.62500000       1.62500000       1.62500000       1.62500000       1.62500000       1.62500000       1.62500000       1.62500000       1.62500000       1.62500000       1.62500000       1.62500000       1.62500000       1.62500000       1.62500000       1.62500000       1.62500000       1.62500000       1.62500000       1.62500000       1.62500000       1.62500000       1.62500000       1.62500000       1.62500000       1.62500000       1.62500000       1.62500000       1.62500000       1.62500000
    INTERNAL  FACTOR  1.0
           1.62500000       1.62500000       1.62500000       1.62500000       1.62500000       1.62500000       1.62500000       1.62500000       1.62500000       1.62500000       1.62500000       1.62500000       1.62500000       1.62500000       1.62500000       1.62500000       1.62500000       1.62500000       1.62500000       1.62500000       1.62500000       1.62500000       1.62500000       1.62500000       1.62500000       1.62500000       1.62500000       1.62500000       1.62500000       1.62500000       1.62500000       1.62500000       1.62500000       1.62500000       1.62500000       1.62500000       1.62500000       1.62500000       1.62500000       1.62500000
    INTERNAL  FACTOR  1.0
           1.62500000       1.62500000       1.62500000       1.62500000       1.62500000       1.62500000       1.62500000       1.62500000       1.62500000       1.62500000       1.62500000       1.62500000       1.62500000       1.62500000       1.62500000       1.62500000       1.62500000       1.62500000       1.62500000       1.62500000       1.62500000       1.62500000       1.62500000       1.62500000       1.62500000       1.62500000       1.62500000       1.62500000       1.62500000       1.62500000       1.62500000       1.62500000       1.62500000       1.62500000       1.62500000       1.62500000       1.62500000       1.62500000       1.62500000       1.62500000
    INTERNAL  FACTOR  1.0
           1.62500000       1.62500000       1.62500000       1.62500000       1.62500000       1.62500000       1.62500000       1.62500000       1.62500000       1.62500000       1.62500000       1.62500000       1.62500000       1.62500000       1.62500000       1.62500000       1.62500000       1.62500000       1.62500000       1.62500000       1.62500000       1.62500000       1.62500000       1.62500000       1.62500000       1.62500000       1.62500000       1.62500000       1.62500000       1.62500000       1.62500000       1.62500000       1.62500000       1.62500000       1.62500000       1.62500000       1.62500000       1.62500000       1.62500000       1.62500000
    INTERNAL  FACTOR  1.0
           1.62500000       1.62500000       1.62500000       1.62500000       1.62500000       1.62500000       1.62500000       1.62500000       1.62500000       1.62500000       1.62500000       1.62500000       1.62500000       1.62500000       1.62500000       1.62500000       1.62500000       1.62500000       1.62500000       1.62500000       1.62500000       1.62500000       1.62500000       1.62500000       1.62500000       1.62500000       1.62500000       1.62500000       1.62500000       1.62500000       1.62500000       1.62500000       1.62500000       1.62500000       1.62500000       1.62500000       1.62500000       1.62500000       1.62500000       1.62500000
    INTERNAL  FACTOR  1.0
           1.62500000       1.62500000       1.62500000       1.62500000       1.62500000       1.62500000       1.62500000       1.62500000       1.62500000       1.62500000       1.62500000       1.62500000       1.62500000       1.62500000       1.62500000       1.62500000       1.62500000       1.62500000       1.62500000       1.62500000       1.62500000       1.62500000       1.62500000       1.62500000       1.62500000       1.62500000       1.62500000       1.62500000       1.62500000       1.62500000       1.62500000       1.62500000       1.62500000       1.62500000       1.62500000       1.62500000       1.62500000       1.62500000       1.62500000       1.62500000
    INTERNAL  FACTOR  1.0
           1.62500000       1.62500000       1.62500000       1.62500000       1.62500000       1.62500000       1.62500000       1.62500000       1.62500000       1.62500000       1.62500000       1.62500000       1.62500000       1.62500000       1.62500000       1.62500000       1.62500000       1.62500000       1.62500000       1.62500000       1.62500000       1.62500000       1.62500000       1.62500000       1.62500000       1.62500000       1.62500000       1.62500000       1.62500000       1.62500000       1.62500000       1.62500000       1.62500000       1.62500000       1.62500000       1.62500000       1.62500000       1.62500000       1.62500000       1.62500000
    INTERNAL  FACTOR  1.0
           1.62500000       1.62500000       1.62500000       1.62500000       1.62500000       1.62500000       1.62500000       1.62500000       1.62500000       1.62500000       1.62500000       1.62500000       1.62500000       1.62500000       1.62500000       1.62500000       1.62500000       1.62500000       1.62500000       1.62500000       1.62500000       1.62500000       1.62500000       1.62500000       1.62500000       1.62500000       1.62500000       1.62500000       1.62500000       1.62500000       1.62500000       1.62500000       1.62500000       1.62500000       1.62500000       1.62500000       1.62500000       1.62500000       1.62500000       1.62500000
    INTERNAL  FACTOR  1.0
           1.62500000       1.62500000       1.62500000       1.62500000       1.62500000       1.62500000       1.62500000       1.62500000       1.62500000       1.62500000       1.62500000       1.62500000       1.62500000       1.62500000       1.62500000       1.62500000       1.62500000       1.62500000       1.62500000       1.62500000       1.62500000       1.62500000       1.62500000       1.62500000       1.62500000       1.62500000       1.62500000       1.62500000       1.62500000       1.62500000       1.62500000       1.62500000       1.62500000       1.62500000       1.62500000       1.62500000       1.62500000       1.62500000       1.62500000       1.62500000
    INTERNAL  FACTOR  1.0
           1.62500000       1.62500000       1.62500000       1.62500000       1.62500000       1.62500000       1.62500000       1.62500000       1.62500000       1.62500000       1.62500000       1.62500000       1.62500000       1.62500000       1.62500000       1.62500000       1.62500000       1.62500000       1.62500000       1.62500000       1.62500000       1.62500000       1.62500000       1.62500000       1.62500000       1.62500000       1.62500000       1.62500000       1.62500000       1.62500000       1.62500000       1.62500000       1.62500000       1.62500000       1.62500000       1.62500000       1.62500000       1.62500000       1.62500000       1.62500000
    INTERNAL  FACTOR  1.0
           1.62500000       1.62500000       1.62500000       1.62500000       1.62500000       1.62500000       1.62500000       1.62500000       1.62500000       1.62500000       1.62500000       1.62500000       1.62500000       1.62500000       1.62500000       1.62500000       1.62500000       1.62500000       1.62500000       1.62500000       1.62500000       1.62500000       1.62500000       1.62500000       1.62500000       1.62500000       1.62500000       1.62500000       1.62500000       1.62500000       1.62500000       1.62500000       1.62500000       1.62500000       1.62500000       1.62500000       1.62500000       1.62500000       1.62500000       1.62500000
END griddata

