# File generated by Flopy version 3.10.0.dev5 on 01/30/2026 at 12:54:04.
BEGIN options
  TIME_UNITS  days
END options

BEGIN dimensions
  NPER  1
END dimensions

BEGIN perioddata
      10.00000000  24       1.62000000
END perioddata

