# File generated by Flopy version 3.10.0.dev5 on 01/30/2026 at 12:54:04.
BEGIN options
  SAVE_FLOWS
END options

BEGIN dimensions
  MAXBOUND  5
END dimensions

BEGIN period  1
  441 -8.00000000E+02
  463 -8.00000000E+02
  485 -8.00000000E+02
  507 -8.00000000E+02
  529 -8.00000000E+02
END period  1

