# File generated by Flopy version 3.10.0.dev5 on 01/30/2026 at 12:54:04.
BEGIN options
END options

BEGIN timing
  TDIS6  ex-gwf-rad-disu.tdis
END timing

BEGIN models
  gwf6  ex-gwf-rad-disu.nam  ex-gwf-rad-disu
END models

BEGIN exchanges
END exchanges

BEGIN solutiongroup  1
  ims6  ex-gwf-rad-disu.ims  ex-gwf-rad-disu
END solutiongroup  1

