# File generated by Flopy version 3.10.0.dev5 on 01/30/2026 at 12:53:49.
BEGIN options
END options

BEGIN continuous  FILEOUT  ex-gwf-lak-p02.gwf.obs.csv
  A  head  1 4 4
  B  head  1 14 9
  C  head  1 24 14
END continuous  FILEOUT  ex-gwf-lak-p02.gwf.obs.csv

