# File generated by Flopy version 3.10.0.dev5 on 01/30/2026 at 12:55:16.
BEGIN options
  BUDGET  FILEOUT  mp7-p01-gwf.cbb
  HEAD  FILEOUT  mp7-p01-gwf.hds
END options

BEGIN period  1
  SAVE  HEAD  ALL
  SAVE  BUDGET  ALL
END period  1

