# File generated by Flopy version 3.10.0.dev5 on 01/30/2026 at 12:54:53.
BEGIN options
END options

BEGIN linear
  INNER_DVCLOSE  1.00000000E-04
END linear

