# File generated by Flopy version 3.8.0 on 05/07/2026 at 20:44:03.
BEGIN options
  SAVE_FLOWS
END options

BEGIN griddata
  icelltype
    CONSTANT  0
  k
    INTERNAL  FACTOR  1.0
         5.49724888       3.30343421       3.32290568       1.87229538       6.07766603       1.14391066       2.37335706       5.32222958       1.89885484       4.75267503
         9.22285732       4.15647559       2.03143935       7.41347551       1.91697538       4.65130395       6.98933295       2.24523434       8.47389780       2.10879720
         6.29012399       1.56788637       5.47392470       9.35555159       8.25427757       2.78552114       4.10755185       5.81262825       9.80725122       5.52740054
         4.12702754       2.91507875       2.59708622       1.93625744       2.68709908       1.36282374       3.15925543       5.91618433       2.87004851       9.93433581
         3.85764473       4.73909026       9.46560975       2.56417964       6.18055349       3.86362775       4.67637904       6.59310799       8.11097819       6.20014666
         3.59939503       1.59054068       3.32827002       5.70997043       5.80161475       6.54079217       1.51097633       3.33846179       9.61119859       1.86471022
         6.81800852       1.53520354       6.82590724       8.74064502       6.15608450       9.30238882       4.21036589       9.89351315       2.80684353       3.07392778
         7.49120004       7.35898936       4.79500689       7.56057626       3.46054907       4.79406206       1.08256504       3.76083532       8.12072443       3.74487776
         6.90368574       7.05766741       4.17873117       9.25427281       5.71511999       7.64025568       2.70426610       1.78755121       3.10566889       9.99281847
         3.13571567       9.01255843       9.42776524       7.80323429       9.75478519       7.21216476       1.39032106       1.71791254       7.12055285       3.57382725
END griddata

