# File generated by Flopy version 3.10.0 on 05/09/2026 at 09:47:52.
BEGIN options
  SAVE_FLOWS
END options

BEGIN packages
  DIS6  sim_model_0705.dis  dis
  STO6  sim_model_0705.sto  sto
  NPF6  sim_model_0705.npf  npf
  IC6  sim_model_0705.ic  ic
  CHD6  sim_model_0705.chd  chd_0
  OC6  sim_model_0705.oc  oc
END packages

