# File generated by Flopy version 3.10.0 on 05/09/2026 at 09:47:35.
BEGIN options
  SAVE_FLOWS
END options

BEGIN packages
  DIS6  sim_model_0489.dis  dis
  STO6  sim_model_0489.sto  sto
  NPF6  sim_model_0489.npf  npf
  IC6  sim_model_0489.ic  ic
  CHD6  sim_model_0489.chd  chd_0
  OC6  sim_model_0489.oc  oc
END packages

