# File generated by Flopy version 3.10.0.dev5 on 01/30/2026 at 12:53:43.
BEGIN options
END options

BEGIN timing
  TDIS6  ex-gwf-disvmesh.tdis
END timing

BEGIN models
  gwf6  ex-gwf-disvmesh.nam  ex-gwf-disvmesh
END models

BEGIN exchanges
END exchanges

BEGIN solutiongroup  1
  ims6  ex-gwf-disvmesh.ims  ex-gwf-disvmesh
END solutiongroup  1

