# File generated by Flopy version 3.10.0.dev5 on 01/30/2026 at 12:54:26.
BEGIN options
  TIME_UNITS  seconds
  ATS6  FILEIN  gwt_t_sqr_tvd.ats
END options

BEGIN dimensions
  NPER  1
END dimensions

BEGIN perioddata
     300.00000000  60       1.00000000
END perioddata

