# File generated by Flopy version 3.10.0.dev5 on 01/30/2026 at 12:54:26.
BEGIN options
  SAVE_FLOWS
END options

BEGIN packages
  MST6  gwt_t_sqr_tvd.mst  mst
  SSM6  gwt_t_sqr_tvd.ssm  ssm
  ADV6  gwt_t_sqr_tvd.adv  adv
  FMI6  gwt_t_sqr_tvd.fmi  fmi
  OC6  gwt_t_sqr_tvd.oc  oc
  DISV6  gwt_t_sqr_tvd.disv  disv
  CNC6  gwt_t_sqr_tvd.cnc  cnc_0
  IC6  gwt_t_sqr_tvd.ic  ic
END packages

