# File generated by Flopy version 3.10.0.dev5 on 01/30/2026 at 12:54:29.
BEGIN options
  SAVE_FLOWS
END options

BEGIN packages
  DIS6  gwf-outer.dis  dis
  IC6  gwf-outer.ic  ic
  NPF6  gwf-outer.npf  npf
  STO6  gwf-outer.sto  sto
  CHD6  gwf-outer.chd  chd-1
  RCH6  gwf-outer.rch  rch-1
  OC6  gwf-outer.oc  oc
END packages

