# File generated by Flopy version 3.10.0.dev5 on 01/30/2026 at 12:54:29.
BEGIN options
  BUDGET  FILEOUT  gwf-inner.bud
  HEAD  FILEOUT  gwf-inner.hds
  HEAD  PRINT_FORMAT  COLUMNS  10  WIDTH  15  DIGITS  6  GENERAL
END options

BEGIN period  1
  SAVE  HEAD  LAST
  SAVE  HEAD  STEPS  1  250  375  500
  SAVE  BUDGET  LAST
  PRINT  HEAD  LAST
  PRINT  BUDGET  FIRST
  PRINT  BUDGET  LAST
END period  1

