# File generated by Flopy version 3.10.0.dev5 on 01/30/2026 at 12:54:29.
BEGIN options
  SAVE_FLOWS
END options

BEGIN packages
  DIS6  gwt-inner.dis  dis
  IC6  gwt-inner.ic  ic
  ADV6  gwt-inner.adv  adv
  DSP6  gwt-inner.dsp  dsp-1
  MST6  gwt-inner.mst  mst-1
  SSM6  gwt-inner.ssm  ssm
  OC6  gwt-inner.oc  oc
END packages

