# File generated by Flopy version 3.10.0.dev5 on 01/30/2026 at 12:54:29.
BEGIN options
END options

BEGIN griddata
  alh
    CONSTANT      10.00000000
  ath1
    CONSTANT       2.00000000
  atv
    CONSTANT       2.00000000
END griddata

