# File generated by Flopy version 3.8.0 on 05/07/2026 at 20:44:29.
BEGIN options
  SAVE_FLOWS
END options

BEGIN griddata
  icelltype
    CONSTANT  0
  k
    INTERNAL  FACTOR  1.0
         9.16168480       2.01277004       1.90270118       1.68586912       9.48269749       8.64417210       9.56652667       2.63064404       9.11160466       4.47295947
         5.16077260       1.97306278       4.03796518       7.65555057       6.28072692       9.37448650       8.03012223       9.85774324       1.36463320       6.04096729
         4.78840917       5.97521806       9.96289523       6.71698439       7.41507455       1.75265936       8.94440544       5.48592196       4.22396114       9.91658070
         3.91555612       3.29987441       1.42691702       4.33388745       3.34283847       3.12471371       1.83831108       8.48174548       3.24969232       2.69707788
         3.98323332       8.94980747       9.91096219       3.03882190       1.01437714       2.20160784       3.91273090       3.38172022       9.64521669       2.96874205
         5.24857822       2.89341957       7.07704639       3.74153157       6.93639825       4.82487089       4.09200722       4.22772221       4.99849046       3.83412661
         3.78704941       6.46190438       6.84529356       4.74531167       9.61765293       8.12648380       7.99867533       1.41556298       4.90534619       2.02308429
         3.73997442       4.12872225       7.44054679       3.22899727       9.81488892       1.00523607       7.72500719       1.35945806       6.18336801       2.56238343
         3.25505828       8.57192266       5.68341069       3.44589843       7.19488663       9.74843547       4.82365157       4.66194526       5.94699457       7.10317051
         6.33668081       5.92404254       6.88644357       5.84749568       6.72697980       1.93112502       7.16891727       3.54644057       1.02952953       8.71165307
END griddata

