# File generated by Flopy version 3.8.0 on 05/07/2026 at 20:45:26.
BEGIN options
  SAVE_FLOWS
END options

BEGIN griddata
  icelltype
    CONSTANT  0
  k
    INTERNAL  FACTOR  1.0
         3.01615639       6.61375622       3.18374686       1.46835780       6.62628766       3.49640988       5.04336660       2.38258622       4.83857569       2.74995190
         8.18137116       3.56453058       3.88572472       2.27527301       6.31058768       7.47212823       9.44700351       8.09271149       3.50837387       9.88607637
         1.49942012       5.24631212       2.18339033       1.84614274       7.37405728       2.55213624       3.61897438       6.36659308       9.54849798       9.15621024
         6.25556104       9.06608537       4.19194441       6.37343327       7.07573203       4.93740020       7.63577101       4.57182197       6.26155749       8.62850282
         7.86111679       4.83301383       4.90077022       8.29631117       8.53986704       6.65374063       1.28427414       2.76003279       9.36543102       6.09765552
         9.91237279       9.05502882       6.23546079       6.53333472       4.31910934       2.07758683       1.88167776       2.11153744       3.32755871       5.15412346
         5.50958322       3.39494295       8.66684733       7.81163568       2.73782367       3.72819264       6.18508268       9.60557686       9.74739811       8.04674025
         1.54580591       2.45566172       8.06070217       9.95730707       9.45962074       8.57925702       1.72223037       9.02747525       6.72957079       7.94204817
         3.80182551       6.76247033       5.45669746       1.72552059       2.29236958       4.07365108       8.30609866       6.28322870       8.02514603       3.74677592
         6.85117001       6.90864960       9.10556127       4.90280355       3.82219139       1.57373042       7.10174042       2.78657372       4.43524466       2.59314657
END griddata

