# File generated by Flopy version 3.10.0.dev5 on 01/30/2026 at 12:54:26.
BEGIN options
END options

BEGIN dimensions
  MAXBOUND  64
END dimensions

BEGIN period  1
  1 626  3.74939946E-33
  1 722  3.74939946E-33
  1 984  3.74939946E-33
  1 985  3.74939946E-33
  1 994  3.74939946E-33
  1 1001  3.74939946E-33
  1 1004  3.74939946E-33
  1 1035  3.74939946E-33
  1 1097  3.74939946E-33
  1 1106  3.74939946E-33
  1 1380  3.74939946E-33
  1 1426  3.74939946E-33
  1 1577  3.74939946E-33
  1 1674  3.74939946E-33
  1 1765  3.74939946E-33
  1 1831  3.74939946E-33
  1 1848  3.74939946E-33
  1 1856  3.74939946E-33
  1 1858  3.74939946E-33
  1 1864  3.74939946E-33
  1 1910  3.74939946E-33
  1 1927  3.74939946E-33
  1 1930  3.74939946E-33
  1 1973  3.74939946E-33
  1 2061  3.74939946E-33
  1 2066  3.74939946E-33
  1 2088  3.74939946E-33
  1 2118  3.74939946E-33
  1 2126  3.74939946E-33
  1 2130  3.74939946E-33
  1 2206       0.02471574
  1 2211       0.48511743
  1 2214  3.74939946E-33
  1 2260  3.74939946E-33
  1 2316  3.74939946E-33
  1 2319  3.74939946E-33
  1 2320  3.74939946E-33
  1 2326  3.74939946E-33
  1 2331  3.74939946E-33
  1 2334  3.74939946E-33
  1 2341  3.74939946E-33
  1 2343  3.74939946E-33
  1 2383  3.74939946E-33
  1 2384       0.01184554
  1 2399       0.55300845
  1 2403       0.99826611
  1 2406       0.15283245
  1 2409       0.21229506
  1 2410       0.74156442
  1 2414       0.80976845
  1 2433       0.94763075
  1 2446  3.74939946E-33
  1 2455  3.74939946E-33
  1 2456  3.74939946E-33
  1 2484  3.74939946E-33
  1 2486  3.74939946E-33
  1 2495  3.74939946E-33
  1 2503  3.74939946E-33
  1 2525  3.74939946E-33
  1 2529  3.74939946E-33
  1 2532  3.74939946E-33
  1 2589  3.74939946E-33
  1 2592  3.74939946E-33
  1 2621  3.74939946E-33
END period  1

