# File generated by Flopy version 3.8.0 on 05/07/2026 at 20:45:21.
BEGIN options
  SAVE_FLOWS
END options

BEGIN griddata
  icelltype
    CONSTANT  0
  k
    INTERNAL  FACTOR  1.0
         6.78214759       1.25745674       6.32309649       9.57625012       5.64821550       3.59433540       5.03322495       5.96092077       7.80625047       6.14716166
         9.50712892       8.27219477       3.21288867       5.83508801       1.23414203       3.08961796       5.11624988       8.88730177       4.17916670       3.62307937
         3.78424438       6.38189864       8.62444062       9.96612926       8.31386124       1.01665633       4.43108703       3.22801733       9.49593287       3.02151248
         2.22603552       2.47204741       1.44063429       3.94164465       3.81151231       7.89068965       6.46138424       9.69346209       2.61562784       7.40103762
         6.29658667       5.59678300       9.78061358       9.60196987       6.34898887       5.09040330       2.53956011       6.80919219       2.26218924       9.56102824
         7.43415548       3.04349481       5.99669645       9.33675345       2.27524694       6.85200706       5.36141960       8.78350679       5.94263867       3.62063527
         3.65284117       1.35338640       6.79305398       6.63085833       3.45879101       1.13448204       5.68816217       5.19010775       7.85909322       3.39936533
         6.17580214       7.27385056       9.38962747       4.87899423       9.97956951       3.96739473       5.23883081       8.06920435       8.98064172       4.81482060
         6.40844758       4.09051168       3.55695422       7.48362067       5.94500493       5.08429273       8.92940772       5.19131248       5.04659841       8.75823061
         1.49408834       6.49378892       2.66589153       9.97690931       9.34537990       8.63757161       5.37922227       3.17686109       9.09559153       5.75196124
END griddata

