# File generated by Flopy version 3.10.0.dev5 on 01/30/2026 at 12:53:32.
BEGIN options
END options

BEGIN griddata
  strt
    CONSTANT       7.50000000
END griddata

