# File generated by Flopy version 3.8.0 on 05/07/2026 at 20:46:22.
BEGIN options
  SAVE_FLOWS
END options

BEGIN griddata
  icelltype
    CONSTANT  0
  k
    INTERNAL  FACTOR  1.0
         8.86925235       4.11622964       6.73007009       6.28783165       2.39839276       8.57658819       3.69189580       2.00354370       7.99910671       7.59461724
         2.92930909       8.34063154       1.03713692       3.34578643       7.89314588       3.93090268       3.34132671       3.38873502       9.00852422       7.77533270
         4.77285390       4.00760264       5.87188139       6.90871990       7.43064431       3.14996929       4.29302235       6.54970794       5.06228518       7.02084751
         8.25964112       4.49853204       4.36118413       6.58666501       3.02002909       3.08557715       2.11575195       7.44924418       2.94743409       6.77510864
         9.31212055       9.41843036       9.84878466       8.22178340       9.22738701       1.85313470       1.89161107       9.28442581       4.41531959       7.34237975
         3.08491542       5.53526090       7.71339435       3.13431522       9.12011893       9.23107172       6.49320964       1.50751781       5.76206525       6.77414590
         1.40204078       6.03806209       2.00688499       7.91900461       7.88701278       2.47976436       2.48363884       7.19821602       5.01092968       9.88921501
         7.84007525       9.47423279       2.94540582       3.50442057       8.02276158       9.79853251       8.79842800       8.25682614       4.15707727       9.77336730
         8.13676830       1.43209410       1.11806449       9.29250546       3.22793573       7.62405098       3.48442559       6.43857058       5.62077700       6.22082104
         5.28849155       4.29874966       4.42695551       7.74565160       4.57606172       6.35405396       7.65063709       5.12002227       7.93819726       8.43124968
END griddata

