# File generated by Flopy version 3.10.0.dev5 on 01/30/2026 at 12:53:39.
BEGIN options
  BUDGET  FILEOUT  ex-gwf-csub-p04.cbc
  HEAD  FILEOUT  ex-gwf-csub-p04.hds
END options

BEGIN period  1
  SAVE  BUDGET  ALL
  SAVE  HEAD  ALL
  PRINT  BUDGET  ALL
END period  1

