# File generated by Flopy version 3.10.0.dev5 on 01/30/2026 at 12:53:39.
BEGIN options
  SAVE_SPECIFIC_DISCHARGE
END options

BEGIN griddata
  icelltype  LAYERED
    CONSTANT  1
    CONSTANT  0
    CONSTANT  0
    CONSTANT  0
  k  LAYERED
    CONSTANT       4.00000000
    CONSTANT       4.00000000
    CONSTANT       0.01000000
    CONSTANT       4.00000000
END griddata

