# File generated by Flopy version 3.8.0 on 05/07/2026 at 20:44:32.
BEGIN options
  SAVE_FLOWS
END options

BEGIN griddata
  icelltype
    CONSTANT  0
  k
    INTERNAL  FACTOR  1.0
         4.52937656       7.48546673       6.02609991       7.89845670       9.47603098       3.09013841       1.58606296       2.81671038       8.09392755       2.39912469
         4.90184213       4.91529384       4.70476138       4.19063479       8.15911357       9.96444278       9.59034091       4.73409264       8.38091292       6.30389592
         9.40036839       3.04495115       1.77817444       7.39153712       5.15714264       6.43458642       1.41187736       1.92111683       1.23256277       8.57656955
         2.96524707       1.80392598       7.26110006       9.43100599       5.95798301       7.98618936       1.87538003       4.78725646       8.81999792       7.33448467
         5.60945232       9.69149740       1.83961852       5.25289914       1.68039829       3.12223655       6.89828490       3.16461096       3.99557574       9.93006357
         9.44253223       9.72672416       4.20934077       3.25137292       8.83634157       9.90732435       7.23128781       1.62351567       9.80595413       7.16993320
         7.28095205       4.67754425       5.28112020       9.74585358       6.63715976       1.34669405       5.87819691       4.81818721       5.02985964       3.16398588
         6.26583324       4.13100524       8.41806100       9.89103561       5.38073075       9.13043415       3.01912244       7.13684788       4.35907403       7.84306305
         2.99838641       6.23835067       5.81327823       8.27038077       1.83670591       9.25695542       7.52006852       8.07614689       2.64401781       1.16975273
         3.19967909       6.77489447       7.55497805       5.93781130       2.74247939       9.01354682       9.16915391       5.29708566       4.80432507       2.12891183
END griddata

