# File generated by Flopy version 3.10.0.dev5 on 01/30/2026 at 12:55:21.
BEGIN options
  SAVE_FLOWS
END options

BEGIN packages
  DIS6  ex-gwf-spbc.dis  dis
  NPF6  ex-gwf-spbc.npf  npf
  IC6  ex-gwf-spbc.ic  ic
  CHD6  ex-gwf-spbc.chd  chd
  OC6  ex-gwf-spbc.oc  oc
END packages

