# File generated by Flopy version 3.8.0 on 05/07/2026 at 20:44:01.
BEGIN options
  SAVE_FLOWS
END options

BEGIN griddata
  icelltype
    CONSTANT  0
  k
    INTERNAL  FACTOR  1.0
         2.81982064       8.06092844       8.74483515       3.94376681       3.23974428       8.29327345       7.42091310       6.95195572       7.39442131       2.01610788
         8.82974803       5.28785036       1.72243793       2.33893416       3.91621828       1.06081646       7.45192065       1.58569049       4.81461164       8.24391632
         1.26546511       5.73191478       8.08602414       8.30688275       4.07311682       4.59706008       8.76098532       1.01922068       2.52066402       4.45265818
         6.39956096       2.17422062       1.31203311       7.31716644       5.78520290       7.73593822       2.36858405       1.61328275       5.39322422       5.80997462
         6.20066059       6.97627711       4.98196978       2.23936296       2.83251394       2.97935706       8.04271334       7.37074458       5.71593438       9.81133120
         3.40265952       7.55528722       4.34840314       5.35307277       7.98166721       9.53855027       6.99972022       7.60955857       6.81287353       1.17100021
         9.21794983       4.46232784       6.07052560       1.51739259       6.66587045       1.78185418       2.48084963       2.80323517       4.99914948       9.40205456
         1.02403137       3.04058665       6.29232329       6.70649025       2.05381899       3.66523684       7.09521526       4.04119371       7.29692531       1.48340105
         1.72058357       9.43748031       9.61776847       5.89971602       5.36260744       1.91158113       3.16689782       6.39176028       8.08454125       5.62578167
         2.13501021       8.08252351       4.78874380       9.39570670       2.12464930       8.46388080       4.71099667       6.99014137       1.34814410       8.12972200
END griddata

