# File generated by Flopy version 3.8.0 on 05/07/2026 at 20:45:07.
BEGIN options
  SAVE_FLOWS
END options

BEGIN griddata
  icelltype
    CONSTANT  0
  k
    INTERNAL  FACTOR  1.0
         2.91279976       5.77019757       4.78388229       5.15345606       6.92654392       2.43325313       8.04134433       5.86535553       6.38025028       4.99885934
         3.19338387       6.21038681       7.59633660       4.01932063       3.35625537       5.73607038       8.16349059       5.27594754       7.16009572       4.42885797
         5.95290637       9.74051194       7.77041687       1.60954991       7.41069655       2.54019166       6.37751927       6.55054089       5.65535475       2.43643077
         3.17136680       6.21533904       8.76108100       1.28803628       5.00150975       6.64707624       4.40448474       9.14701653       3.51340575       7.11842435
         7.25447529       2.22739142       9.40590316       7.24568340       7.67158949       5.48033914       9.04929808       6.99231011       2.56503838       7.51714470
         8.04857244       6.27770204       3.63732151       1.90443551       1.76123366       8.73996556       7.92597452       9.12036725       7.04769667       3.12425270
         2.89869733       7.55293549       5.88617272       2.43800347       2.77897162       8.91577406       9.91556868       1.41623643       3.56518887       1.20474938
         3.95062551       4.37324655       7.74453766       9.14565151       9.86963951       6.59318067       5.56838166       7.90799433       6.21932316       2.05557442
         2.02952927       2.08707193       7.10169033       6.52542392       7.77625412       2.84136221       5.98871584       5.41378713       1.26758675       3.42870660
         3.76114510       5.94740914       5.18604744       6.00710273       9.02011779       6.01272349       5.62937718       4.64139686       4.43665913       8.20555357
END griddata

