# File generated by Flopy version 3.10.0.dev5 on 01/30/2026 at 12:54:52.
BEGIN options
  TIME_UNITS  days
END options

BEGIN dimensions
  NPER  2
END dimensions

BEGIN perioddata
    1000.00000000  10       1.00000000
    9000.00000000  90       1.00000000
END perioddata

