# File generated by Flopy version 3.10.0.dev5 on 01/30/2026 at 12:54:52.
BEGIN options
  LENGTH_UNITS  meters
END options

BEGIN dimensions
  NLAY  1
  NROW  1
  NCOL  401
END dimensions

BEGIN griddata
  delr
    CONSTANT       2.50000000
  delc
    CONSTANT       1.00000000
  top
    CONSTANT       1.00000000
  botm
    CONSTANT       0.00000000
END griddata

