# File generated by Flopy version 3.4.1 on 04/23/2026 at 18:50:35.
BEGIN options
END options

BEGIN dimensions
  NPER  1
END dimensions

BEGIN perioddata
       1.00000000  1       1.00000000
END perioddata

