# File generated by Flopy version 3.5.0 on 04/28/2026 at 17:17:30.
BEGIN options
END options

BEGIN packages
  DIS6  model.dis  dis
  NPF6  model.npf  npf
  IC6  model.ic  ic
  CHD6  model.chd  chd_0
END packages

