# File generated by Flopy version 3.4.1 on 04/23/2026 at 18:50:35.
BEGIN griddata
  strt
    CONSTANT      10.00000000
END griddata

