# File generated by Flopy version 3.4.1 on 04/23/2026 at 18:50:35.
BEGIN options
END options

BEGIN packages
  DIS6  model.dis  dis
  NPF6  model.npf  npf
  IC6  model.ic  ic
  CHD6  model.chd  chd_0
END packages

