# File generated by Flopy version 3.4.1 on 04/23/2026 at 18:50:35.
BEGIN options
END options

BEGIN dimensions
  MAXBOUND  20
END dimensions

BEGIN period  1
  1 1 1      10.00000000
  1 2 1      10.00000000
  1 3 1      10.00000000
  1 4 1      10.00000000
  1 5 1      10.00000000
  1 6 1      10.00000000
  1 7 1      10.00000000
  1 8 1      10.00000000
  1 9 1      10.00000000
  1 10 1      10.00000000
  1 1 10       5.00000000
  1 2 10       5.00000000
  1 3 10       5.00000000
  1 4 10       5.00000000
  1 5 10       5.00000000
  1 6 10       5.00000000
  1 7 10       5.00000000
  1 8 10       5.00000000
  1 9 10       5.00000000
  1 10 10       5.00000000
END period  1

