# File generated by Flopy version 3.5.0 on 04/28/2026 at 17:17:30.
BEGIN options
END options

