# File generated by Flopy version 3.10.0.dev5 on 01/30/2026 at 12:53:36.
BEGIN options
  TIME_UNITS  days
END options

BEGIN dimensions
  NPER  1
END dimensions

BEGIN perioddata
    1000.00000000  100       1.05000000
END perioddata

