# File generated by Flopy version 3.10.0.dev5 on 01/30/2026 at 12:55:19.
BEGIN options
END options

BEGIN packagedata
  GWFGRID  FILEIN  ../gwf/mp7-p03-gwf.dis.grb
  GWFHEAD  FILEIN  ../gwf/mp7-p03-gwf.hds
  GWFBUDGET  FILEIN  ../gwf/mp7-p03-gwf.cbb
END packagedata

