# File generated by Flopy version 3.8.0 on 05/07/2026 at 20:44:19.
BEGIN options
  SAVE_FLOWS
END options

BEGIN griddata
  icelltype
    CONSTANT  0
  k
    INTERNAL  FACTOR  1.0
         8.41018027       9.03360091       8.99616632       5.12512223       2.36319354       6.38131910       3.02284646       7.04860222       3.09226110       7.83696214
         1.68914829       5.16061668       4.07702426       3.20852460       9.70348353       4.43225713       3.99565254       8.92126764       8.89611805       5.96655449
         5.97471744       4.80285627       7.74919285       3.58807278       3.62115243       3.76017070       8.93546196       1.41569522       3.09251123       4.75159574
         1.59885975       7.99552288       5.67758710       7.57994434       6.06511157       9.19585236       9.01596179       7.10296922       7.22296176       6.28353026
         4.47700939       9.67328294       1.66397737       3.85703122       7.48144019       9.89702651       2.06830168       1.93061255       5.19249726       9.80598654
         6.26652001       9.45789265       4.51414574       2.46775907       7.11326265       7.22945230       7.02577793       3.40014040       9.73923134       2.29169598
         1.59011819       3.87131933       9.32406038       7.94203939       8.56361004       1.23633962       2.37029408       7.10337054       1.56119677       2.99046925
         8.41699780       5.70910529       1.65883225       7.90590551       7.77122533       5.63257169       7.08326432       7.27346926       1.38780671       1.29900043
         8.41282891       3.08170225       8.00532692       4.21292995       6.16417104       3.54232691       2.64416421       8.45662122       3.94235794       1.15158991
         1.30172384       3.91323313       9.69105379       7.65271663       9.05677716       2.53517678       1.17671667       2.55179667       1.45129297       9.13659259
END griddata

