# File generated by Flopy version 3.10.0.dev5 on 01/30/2026 at 12:53:38.
BEGIN options
END options

BEGIN griddata
  iconvert
    CONSTANT  1
  ss
    CONSTANT  1.00000000E-05
  sy
    CONSTANT       0.20000000
END griddata

BEGIN period  1
  TRANSIENT
END period  1

BEGIN period  2
  TRANSIENT
END period  2

