# File generated by Flopy version 3.10.0.dev5 on 01/30/2026 at 12:55:19.
BEGIN options
  TIME_UNITS  days
END options

BEGIN dimensions
  NPER  3
END dimensions

BEGIN perioddata
  100000.00000000  1       1.00000000
   36500.00000000  10       1.50000000
  100000.00000000  1       1.00000000
END perioddata

