# File generated by Flopy version 3.10.0.dev5 on 01/30/2026 at 12:55:19.
BEGIN options
END options

BEGIN packages
  DIS6  mp7-p03-prt.dis  dis
  MIP6  mp7-p03-prt.mip  mip
  PRP6  mp7-p03-prt_1.prp  prp1
  OC6  mp7-p03-prt.oc  oc
  FMI6  mp7-p03-prt.fmi  fmi
END packages

