# File generated by Flopy version 3.10.0.dev5 on 01/30/2026 at 12:54:24.
BEGIN options
  BUDGET  FILEOUT  gwt_s_step_cen.cbc
  CONCENTRATION  FILEOUT  gwt_s_step_cen.ucn
END options

BEGIN period  1
  SAVE  CONCENTRATION  LAST
  SAVE  BUDGET  LAST
  PRINT  CONCENTRATION  LAST
  PRINT  BUDGET  LAST
END period  1

