# File generated by Flopy version 3.10.0.dev5 on 01/30/2026 at 12:55:13.
BEGIN options
  BOUNDNAMES
END options

BEGIN dimensions
  MAXBOUND  3
END dimensions

BEGIN period  1
  6 2596 -1.90000000E+03 P3
  6 2241 -7.60000000E+03 P1
  6 2237 -7.60000000E+03 P2
END period  1

