# File generated by Flopy version 3.10.0.dev5 on 01/30/2026 at 12:54:03.
BEGIN options
  HEAD  FILEOUT  ex-gwf-nwt-p03.hds
END options

BEGIN period  1
  SAVE  HEAD  ALL
END period  1

