# File generated by Flopy version 3.10.0.dev5 on 01/30/2026 at 12:54:28.
BEGIN options
  SAVE_FLOWS
END options

BEGIN packages
  MST6  gwt_v_sqr_utvd.mst  mst
  SSM6  gwt_v_sqr_utvd.ssm  ssm
  ADV6  gwt_v_sqr_utvd.adv  adv
  FMI6  gwt_v_sqr_utvd.fmi  fmi
  OC6  gwt_v_sqr_utvd.oc  oc
  DISV6  gwt_v_sqr_utvd.disv  disv
  CNC6  gwt_v_sqr_utvd.cnc  cnc_0
  IC6  gwt_v_sqr_utvd.ic  ic
END packages

