# File generated by Flopy version 3.10.0.dev5 on 01/30/2026 at 12:54:24.
BEGIN options
  SAVE_FLOWS
END options

BEGIN packages
  MST6  gwt_s_sqr_up.mst  mst
  SSM6  gwt_s_sqr_up.ssm  ssm
  ADV6  gwt_s_sqr_up.adv  adv
  FMI6  gwt_s_sqr_up.fmi  fmi
  OC6  gwt_s_sqr_up.oc  oc
  DISV6  gwt_s_sqr_up.disv  disv
  CNC6  gwt_s_sqr_up.cnc  cnc_0
  IC6  gwt_s_sqr_up.ic  ic
END packages

