# File generated by Flopy version 3.10.0.dev5 on 01/30/2026 at 12:54:24.
BEGIN options
END options

BEGIN timing
  TDIS6  ex-gwt-adv-schemes.tdis
END timing

BEGIN models
  gwf6  gwf_structured.nam  gwf_structured
END models

BEGIN exchanges
END exchanges

BEGIN solutiongroup  1
  ims6  ex-gwt-adv-schemes.ims  gwf_structured
END solutiongroup  1

