# File generated by Flopy version 3.10.0.dev5 on 01/30/2026 at 12:54:03.
BEGIN options
  TIME_UNITS  days
END options

BEGIN dimensions
  NPER  4
END dimensions

BEGIN perioddata
       1.00000000  1       1.00000000
      10.00000000  120       1.00000000
      10.00000000  120       1.00000000
      10.00000000  120       1.00000000
END perioddata

