# File generated by Flopy version 3.10.0.dev5 on 01/30/2026 at 12:53:45.
BEGIN options
  TRACK  FILEOUT  ex-gwe-prt-prt.trk
  TRACKCSV  FILEOUT  ex-gwe-prt-prt.trk.csv
END options

