# File generated by Flopy version 3.10.0.dev5 on 01/30/2026 at 12:54:03.
BEGIN options
  NEWTON  UNDER_RELAXATION
END options

BEGIN packages
  DIS6  ex-gwf-nwt-p03.dis  dis
  NPF6  ex-gwf-nwt-p03.npf  npf
  IC6  ex-gwf-nwt-p03.ic  ic
  CHD6  ex-gwf-nwt-p03.chd  chd_0
  RCH6  ex-gwf-nwt-p03.rcha  rcha_0
  OC6  ex-gwf-nwt-p03.oc  oc
END packages

