# File generated by Flopy version 3.10.0.dev5 on 01/30/2026 at 12:54:00.
BEGIN options
END options

BEGIN sources
  CHD-LEFT  AUX  TEMPERATURE
  CHD-RIGHT  AUX  TEMPERATURE
END sources

