# File generated by Flopy version 3.8.0 on 05/07/2026 at 20:44:13.
BEGIN options
  SAVE_FLOWS
END options

BEGIN griddata
  icelltype
    CONSTANT  0
  k
    INTERNAL  FACTOR  1.0
         4.30026012       6.69683230       1.27747779       7.22130688       9.44029970       9.47274506       4.47474720       1.66839302       5.37035788       6.13017734
         6.48857405       7.25069919       1.20843494       9.78306783       1.06658531       5.44412177       2.43146882       7.86703555       3.56611681       2.62201936
         2.67031835       1.20485264       2.82306758       4.02762336       5.31815440       9.67712629       9.22550318       3.67943674       1.26867176       1.05501943
         1.13634342       1.68491727       2.95621167       4.93277857       6.95445010       5.39881160       3.39020395       1.27874673       2.17201811       4.45979683
         7.20689128       1.71795179       5.50078511       8.93035988       4.77858233       5.60888089       1.65128803       4.69341668       9.57670262       5.53956388
         7.17351226       6.76264002       2.95752003       5.18673823       1.14244221       8.99441954       5.46034577       8.85101999       5.74420372       3.24432537
         1.92533368       5.00869501       7.35989643       9.91272192       5.13046472       3.62869028       2.19017958       6.45112977       1.32360491       6.40852284
         4.62047561       1.27061222       6.23777784       8.05130898       9.51757322       1.82976137       2.43367191       1.00596981       1.34306990       3.72315412
         2.95200658       6.40252183       7.97380505       5.37195887       6.07666331       3.62176460       9.83929730       2.37118888       1.46276318       3.57279898
         1.36256464       1.34845373       4.31428007       5.24431129       2.56460903       4.72148789       8.28959319       6.52850868       1.62653361       6.40845760
END griddata

