# File generated by Flopy version 3.10.0.dev5 on 01/30/2026 at 12:54:06.
BEGIN options
  NEWTON
END options

BEGIN packages
  DIS6  ex-gwf-zaidel.dis  dis
  NPF6  ex-gwf-zaidel.npf  npf
  IC6  ex-gwf-zaidel.ic  ic
  CHD6  ex-gwf-zaidel.chd  chd_0
  OC6  ex-gwf-zaidel.oc  oc
END packages

