# File generated by Flopy version 3.10.0.dev5 on 01/30/2026 at 12:54:06.
BEGIN options
END options

BEGIN dimensions
  MAXBOUND  2
END dimensions

BEGIN period  1
  1 1 1 2.30000000E+01
  1 1 200 1.00000000E+01
END period  1

