# File generated by Flopy version 3.10.0.dev5 on 01/30/2026 at 12:54:06.
BEGIN options
  LENGTH_UNITS  meters
END options

BEGIN dimensions
  NLAY  1
  NROW  1
  NCOL  200
END dimensions

BEGIN griddata
  delr
    CONSTANT       5.00000000
  delc
    CONSTANT       1.00000000
  top
    CONSTANT      25.00000000
  botm
    INTERNAL  FACTOR  1.0
        20.00000000      20.00000000      20.00000000      20.00000000      20.00000000      20.00000000      20.00000000      20.00000000      20.00000000      20.00000000      20.00000000      20.00000000      20.00000000      20.00000000      20.00000000      20.00000000      20.00000000      20.00000000      20.00000000      20.00000000      20.00000000      20.00000000      20.00000000      20.00000000      20.00000000      20.00000000      20.00000000      20.00000000      20.00000000      20.00000000      20.00000000      20.00000000      20.00000000      20.00000000      20.00000000      20.00000000      20.00000000      20.00000000      20.00000000      20.00000000      15.00000000      15.00000000      15.00000000      15.00000000      15.00000000      15.00000000      15.00000000      15.00000000      15.00000000      15.00000000      15.00000000      15.00000000      15.00000000      15.00000000      15.00000000      15.00000000      15.00000000      15.00000000      15.00000000      15.00000000      15.00000000      15.00000000      15.00000000      15.00000000      15.00000000      15.00000000      15.00000000      15.00000000      15.00000000      15.00000000      15.00000000      15.00000000      15.00000000      15.00000000      15.00000000      15.00000000      15.00000000      15.00000000      15.00000000      15.00000000      10.00000000      10.00000000      10.00000000      10.00000000      10.00000000      10.00000000      10.00000000      10.00000000      10.00000000      10.00000000      10.00000000      10.00000000      10.00000000      10.00000000      10.00000000      10.00000000      10.00000000      10.00000000      10.00000000      10.00000000      10.00000000      10.00000000      10.00000000      10.00000000      10.00000000      10.00000000      10.00000000      10.00000000      10.00000000      10.00000000      10.00000000      10.00000000      10.00000000      10.00000000      10.00000000      10.00000000      10.00000000      10.00000000      10.00000000      10.00000000       5.00000000       5.00000000       5.00000000       5.00000000       5.00000000       5.00000000       5.00000000       5.00000000       5.00000000       5.00000000       5.00000000       5.00000000       5.00000000       5.00000000       5.00000000       5.00000000       5.00000000       5.00000000       5.00000000       5.00000000       5.00000000       5.00000000       5.00000000       5.00000000       5.00000000       5.00000000       5.00000000       5.00000000       5.00000000       5.00000000       5.00000000       5.00000000       5.00000000       5.00000000       5.00000000       5.00000000       5.00000000       5.00000000       5.00000000       5.00000000       0.00000000       0.00000000       0.00000000       0.00000000       0.00000000       0.00000000       0.00000000       0.00000000       0.00000000       0.00000000       0.00000000       0.00000000       0.00000000       0.00000000       0.00000000       0.00000000       0.00000000       0.00000000       0.00000000       0.00000000       0.00000000       0.00000000       0.00000000       0.00000000       0.00000000       0.00000000       0.00000000       0.00000000       0.00000000       0.00000000       0.00000000       0.00000000       0.00000000       0.00000000       0.00000000       0.00000000       0.00000000       0.00000000       0.00000000       0.00000000
END griddata

