# File generated by Flopy version 3.10.0.dev5 on 01/30/2026 at 12:53:46.
BEGIN options
  SAVE_FLOWS
END options

BEGIN packages
  DIS6  ex-gwf-hanir.dis  dis
  NPF6  ex-gwf-hanir.npf  npf
  IC6  ex-gwf-hanir.ic  ic
  CHD6  ex-gwf-hanir.chd  chd
  WEL6  ex-gwf-hanir.wel  wel
  OC6  ex-gwf-hanir.oc  oc
END packages

