# File generated by Flopy version 3.10.0 on 05/09/2026 at 09:47:04.
BEGIN options
  SAVE_FLOWS
END options

BEGIN packages
  DIS6  sim_model_0090.dis  dis
  STO6  sim_model_0090.sto  sto
  NPF6  sim_model_0090.npf  npf
  IC6  sim_model_0090.ic  ic
  CHD6  sim_model_0090.chd  chd_0
  OC6  sim_model_0090.oc  oc
END packages

