# File generated by Flopy version 3.10.0.dev5 on 01/30/2026 at 12:55:20.
BEGIN options
END options

BEGIN griddata
  iconvert
    CONSTANT  1
  ss
    CONSTANT  1.00000000E-07
  sy
    CONSTANT       0.25000000
END griddata

BEGIN period  1
  TRANSIENT
END period  1

