# File generated by Flopy version 3.10.0.dev5 on 01/30/2026 at 12:54:24.
BEGIN dimensions
  MAXATS  1
END dimensions

BEGIN perioddata
  1       5.00000000  1.00000000E-05      10.00000000       2.00000000       2.00000000
END perioddata

