# File generated by Flopy version 3.10.0.dev5 on 01/30/2026 at 12:53:40.
BEGIN options
  BUDGET  FILEOUT  ex-gwf-curve-90.cbc
  HEAD  FILEOUT  ex-gwf-curve-90.hds
  HEAD  PRINT_FORMAT  COLUMNS  16  WIDTH  15  DIGITS  6  GENERAL
END options

BEGIN period  1
  SAVE  HEAD  ALL
  SAVE  BUDGET  ALL
  PRINT  HEAD  ALL
  PRINT  BUDGET  ALL
END period  1

