# File generated by Flopy version 3.10.0.dev5 on 01/30/2026 at 12:54:00.
BEGIN options
END options

BEGIN timing
  TDIS6  ex-gwf-maw-p03.tdis
END timing

BEGIN models
  gwf6  ex-gwf-maw-p03.nam  ex-gwf-maw-p03
END models

BEGIN exchanges
END exchanges

BEGIN solutiongroup  1
  ims6  ex-gwf-maw-p03.ims  ex-gwf-maw-p03
END solutiongroup  1

