# File generated by Flopy version 3.8.0 on 05/07/2026 at 20:45:48.
BEGIN options
  SAVE_FLOWS
END options

BEGIN griddata
  icelltype
    CONSTANT  0
  k
    INTERNAL  FACTOR  1.0
         1.33167257       3.40571088       4.06004306       8.81443984       5.50221449       3.98249652       6.55185839       1.73729728       1.89982325       2.57098736
         3.39458249       4.94858148       1.50226292       8.76876642       1.12710637       1.31597210       3.16354063       4.04557108       8.75125433       2.52131414
         8.51800828       7.62686015       4.21566130       3.97722325       9.92927423       9.34039684       6.59667194       5.85254516       6.68590784       2.28995382
         2.22167886       3.36151389       4.80000210       4.67607839       3.68697081       8.98167076       4.84067812       6.45500482       3.59817940       6.65376697
         3.20319023       2.34072190       9.82007193       9.62335067       7.49661132       3.75441809       9.28930894       8.10409771       6.89567557       5.14820691
         8.43411060       3.11748991       3.54368303       3.16063918       3.04278100       9.51105017       9.44645698       7.60490391       6.05339571       2.42467188
         3.03975908       7.68765669       1.90979941       7.13564653       8.54352293       3.22633366       5.50007772       3.16773550       3.21090199       7.01381390
         2.96898960       5.17509248       4.68142213       1.09018938       8.16518717       1.86130020       3.18932241       3.16605754       4.75807973       8.95967872
         6.82037269       6.51802495       2.82438665       6.00834398       6.50311836       5.20022269       9.78640333       3.12574109       7.97401246       5.11774531
         7.75754882       6.19242888       7.92861513       6.80553179       6.96238158       2.60650252       3.55703902       8.84542684       6.89936872       3.06026776
END griddata

