# File generated by Flopy version 3.10.0.dev5 on 01/30/2026 at 12:55:19.
BEGIN options
END options

BEGIN dimensions
  MAXBOUND  2
END dimensions

BEGIN period  1
  1 11 10 0
  3 13 5 0
END period  1

BEGIN period  2
  1 11 10 -75000
  3 13 5 -100000
END period  2

BEGIN period  3
  1 11 10 -75000
  3 13 5 -100000
END period  3

