# File generated by Flopy version 3.10.0.dev5 on 01/30/2026 at 12:54:25.
BEGIN options
END options

BEGIN dimensions
  NLAY  1
  NCPL  2633
  NVERT  1382
END dimensions

BEGIN griddata
  top
    CONSTANT       1.00000000
  botm
    CONSTANT       0.00000000
END griddata

BEGIN vertices
  1       0.00000000       0.00000000
  2     100.00000000       0.00000000
  3     100.00000000     100.00000000
  4       0.00000000     100.00000000
  5      50.00000000      50.00000000
  6       0.00000000      50.00000000
  7      50.00000000       0.00000000
  8     100.00000000      50.00000000
  9      50.00000000     100.00000000
  10      75.00000000      25.00000000
  11      25.00000000      75.00000000
  12      75.00000000      75.00000000
  13      50.00000000      25.00000000
  14      75.00000000       0.00000000
  15     100.00000000      25.00000000
  16      87.50000000      37.50000000
  17      87.50000000      12.50000000
  18      87.50000000      25.00000000
  19     100.00000000      37.50000000
  20      93.75000000      43.75000000
  21      93.75000000      37.50000000
  22     100.00000000      43.75000000
  23      96.87500000      46.87500000
  24      96.87500000      43.75000000
  25      95.31250000      40.62500000
  26     100.00000000      40.62500000
  27      97.65625000      39.06250000
  28      97.73437500      41.48437500
  29     100.00000000      31.25000000
  30      96.87500000      35.35156250
  31      91.40625000      40.62500000
  32      96.02864583      37.46744792
  33      91.50391299      30.88601833
  34     100.00000000      34.37500000
  35      93.35937500      39.64843750
  36      91.40625000      38.18359375
  37      89.17968750      39.40429688
  38      91.61420713      34.53693561
  39      88.12899886      43.96172952
  40      85.50111261      40.95605488
  41      94.60459233      32.61947150
  42      89.73015768      36.25875299
  43      86.41469031      32.92592215
  44      89.04858162      33.62126555
  45      88.43681399      30.60244994
  46      83.69355411      28.51604475
  47      90.27816773      27.41499820
  48      85.74046224      30.29747401
  49      81.85549479      32.69471198
  50      86.33071057      27.55257375
  51      83.85821068      24.87586236
  52      90.92340319      43.42854136
  53      91.76684410      48.60004706
  54      89.16472809      41.80067936
  55      90.01024989      46.23200394
  56      92.63149302      46.12312299
  57      94.46055247      48.15099281
  58      96.94507844      49.92992156
  59     100.00000000      75.00000000
  60     100.00000000      62.50000000
  61      93.69258284      51.84803176
  62      86.69065982      50.52998244
  63     100.00000000      56.25000000
  64      88.95658110      48.84914134
  65      90.60621629      51.48306651
  66      85.73958569      46.88010017
  67     100.00000000      53.12500000
  68      91.50241687      57.13682560
  69      96.40069114      54.68750000
  70      91.85164299      54.18355857
  71      93.96058545      55.93022430
  72      96.84828286      58.58330443
  73      93.89365583      58.90114389
  74      87.29907407      55.14249540
  75      95.79235549      62.65941825
  76      89.37048752      53.69039836
  77      89.57038672      62.25799176
  78      91.25861882      59.96987495
  79      92.66118429      62.77159342
  80      87.53318553      58.98802255
  81     100.00000000      68.75000000
  82      90.20531145      67.99392404
  83      90.69676404      65.03641707
  84      94.35242156      66.22284989
  85      85.20819377      65.64396068
  86      87.86679953      64.56615836
  87      85.24778971      61.92375042
  88      94.40017446      35.09876228
  89      97.45998936      32.55601124
  90      95.92667714      27.83564911
  91     100.00000000      28.12500000
  92      95.98425043      30.42616109
  93      93.59292755      29.18341170
  94      93.23340667      25.86646455
  95      98.06405458      26.56250000
  96      95.79679281      25.18689628
  97     100.00000000      12.50000000
  98      93.31041267      20.98250394
  99      93.96067457      23.43534408
  100      90.61954314      23.76018814
  101     100.00000000      18.75000000
  102     100.00000000      21.87500000
  103      96.86910621      22.22465121
  104      98.22816907      29.68750000
  105      86.86192717      18.85000466
  106      97.86129362      24.25902434
  107      88.04827216      21.83501754
  108      84.59236877      21.48025709
  109      90.32200662      19.20310540
  110      82.92282512      37.15876581
  111      88.33704068      28.41922188
  112      79.45100051      26.50032593
  113      85.12320644      43.93809006
  114      80.21602374      46.50176548
  115      80.93091552      41.89184793
  116      83.03115970      45.91196758
  117      83.37524782      42.20161230
  118      82.44498303      39.74335373
  119      78.10214269      37.60397757
  120      80.57527029      38.06121272
  121      78.91070868      40.14758163
  122      79.85262668      35.05286532
  123      77.57866857      43.73238221
  124      73.99731737      40.30914403
  125      76.43122854      39.53544745
  126      73.84272235      35.60764266
  127      83.28730545      49.46796216
  128      81.22358736      44.29762496
  129      77.33552948      30.88536804
  130      76.80202825      34.83576795
  131      79.29235223      32.54737102
  132      80.15859636      29.54449385
  133      74.62027197      32.52989731
  134      68.77550369      32.69038900
  135      74.17626742      28.73298306
  136      71.72052132      33.43440681
  137      69.09926275      38.11690975
  138      71.00443364      30.06828466
  139      69.66753329      35.36008689
  140      64.48888061      35.60656034
  141      67.04344781      34.75299951
  142      64.25303633      30.65123699
  143      66.22669678      32.30859798
  144      67.49370645      28.79594297
  145      96.11870075      52.24529811
  146      97.75002548      56.50608831
  147     100.00000000      59.37500000
  148      89.00755119      56.96837499
  149     100.00000000      65.62500000
  150      97.30997222      67.18750000
  151      97.95235738      64.06250000
  152      96.38604463      71.87500000
  153      97.65501676      69.69031502
  154     100.00000000      71.87500000
  155      94.54577934      69.34520061
  156      90.98127555      73.87238299
  157      92.61588848      67.89755055
  158      91.86851652      70.90409967
  159      93.76247564      73.08696047
  160      87.79335746      71.30274865
  161      96.44824097      75.45527981
  162      89.74151828      70.18934817
  163      87.52648961      68.57471220
  164      82.82386747      70.41181352
  165      85.43425739      70.15645433
  166      84.58174382      74.91163513
  167      83.90280812      67.97126635
  168      84.33739700      72.41381825
  169      79.03692093      67.27887582
  170      80.03163014      74.09588620
  171      81.80565814      65.26522679
  172      81.37221953      68.31128716
  173      79.75138447      70.98329754
  174      93.20423301      76.42706944
  175      77.19851033      72.78205910
  176      72.16745780      69.99367723
  177      76.87808967      69.61635414
  178      74.28975003      72.09737683
  179      74.13096385      64.91352561
  180      69.49932487      74.80776568
  181      76.22271836      66.84541305
  182      71.51230245      72.77699728
  183      74.43672882      68.73080115
  184      71.99073085      67.00584265
  185      78.07595304      62.74045080
  186      66.90582150      70.22392754
  187      69.35174644      62.16564143
  188      77.92537560      65.14328449
  189      69.47297321      68.65390899
  190      68.84901304      72.15009549
  191      64.46285287      74.63175405
  192      66.30595485      72.77236262
  193      62.08821580      70.43474698
  194      64.52674965      71.00874440
  195      64.32502180      66.39889788
  196      71.35383233      64.21357691
  197      66.94938791      67.41136747
  198      66.70856552      64.12811828
  199      69.24261258      65.93781351
  200      73.89337492      59.72829097
  201      61.49132785      61.03814260
  202      73.29940278      62.35356746
  203      75.76983538      61.53267425
  204      78.03027895      57.30403588
  205      78.03011950      60.02243655
  206      82.24736330      58.66348358
  207      80.78079449      61.33544582
  208      65.65817550      59.95215501
  209      63.66418011      63.31889603
  210      83.11337331      60.87727475
  211      84.88523315      58.90786103
  212      83.24645560      63.30577777
  213      83.86185034      55.59541074
  214      80.22836346      63.57804624
  215      67.04712459      61.82287452
  216      68.61372648      59.20873821
  217      58.79859710      65.97374561
  218      71.18778428      60.13682710
  219      71.81635773      55.13629320
  220      72.20727575      57.72520528
  221      69.71317217      56.77783773
  222      75.00766367      55.97838527
  223      66.42522042      56.75484403
  224      68.09874339      52.54129578
  225      60.80590950      63.86653882
  226      75.81016542      58.25735851
  227      74.90480763      49.90003417
  228      62.81482271      57.57936204
  229      68.08173311      54.97365595
  230      64.96463539      53.73561752
  231      61.53242413      66.56829246
  232      59.61169304      68.81756599
  233      56.13465242      61.23728306
  234      78.16640927      52.88488812
  235      74.09903077      52.95371508
  236      64.33172191      55.90469712
  237      60.60455340      54.05298575
  238      64.41448641      47.58254777
  239      57.98313865      74.01634815
  240      58.84107410      61.89314275
  241      56.91875444      63.91365489
  242      58.42889437      57.68202415
  243      54.20670323      68.27614270
  244      56.17795256      66.47736823
  245      56.84498612      69.18787825
  246      52.01207982      63.89157040
  247      58.54071181      71.33654276
  248      54.27858448      72.34119870
  249      54.46867669      63.17841319
  250      53.72937906      65.77353229
  251      60.90974190      73.22736289
  252      52.04326621      59.41132641
  253      49.54340532      67.86875055
  254      77.20935070      55.06707686
  255      80.39977145      55.16535667
  256      71.14034658      52.14431132
  257      76.11466676      51.85243142
  258      78.20394770      49.20668774
  259      65.55730304      50.58149740
  260      60.80949515      78.67786991
  261      81.30584716      52.04414856
  262      80.31116598      57.44913617
  263      62.62215850      51.66271783
  264      69.46508989      47.37512539
  265      60.07088108      75.93810979
  266      80.73446093      49.55456371
  267      57.37607032      49.28119453
  268      69.32713282      50.10240912
  269      72.07508138      48.87428042
  270      66.97450696      48.32421755
  271      66.80224576      44.12976671
  272      62.68833542      76.70191006
  273      75.00000000     100.00000000
  274      65.25174700      81.02055548
  275      63.36100039      79.22274017
  276      65.48699954      77.30527003
  277      61.11934311      83.47341997
  278      61.64071585      81.03194835
  279      57.05197383      81.32843413
  280      59.66325797      51.21179044
  281      72.82644225      44.54463736
  282      56.64804539      77.56166242
  283      56.26082672      53.91554928
  284      60.70764036      47.65438497
  285      71.66164697      46.57251688
  286      69.65959817      44.50040735
  287      74.62651221      46.92704453
  288      57.28398958      51.71040297
  289      53.53499963      51.31085531
  290      68.61216372      41.37600826
  291      75.27552509      44.56543038
  292      75.69321209      42.11992176
  293      77.23153985      46.37296458
  294      63.99837206      40.31524346
  295      71.15568750      40.09020904
  296      66.63431148      39.41445227
  297      65.97713891      41.79850493
  298      63.10665383      44.12610638
  299      71.75783636      37.40451901
  300      72.42590548      42.15432438
  301      87.47050061      61.29665146
  302      96.18644382      18.46162835
  303      85.72801911      23.50296231
  304      81.06443600      16.14182992
  305      91.01021748      21.44642602
  306      88.91619876      15.84936542
  307      85.12900530      38.43475994
  308      85.31205962      35.57303297
  309      83.05639194      34.76720745
  310      81.99642670      26.61546334
  311      80.86050776      23.53368692
  312      77.84301766      23.91818085
  313      74.50374191      19.41920441
  314      78.84889457      19.77944856
  315      75.53890762      22.13961696
  316      79.13707673      22.04108855
  317      81.74129516      20.56007410
  318      70.19878377      22.61447393
  319      80.75936434      18.44953409
  320      78.29742477      16.95005609
  321      83.87381030      17.68723776
  322      72.80187857      21.62394973
  323      69.74440501      17.50464286
  324      71.85407071      19.13311336
  325      73.68606682      14.57902280
  326      73.41231344      17.11442696
  327      75.82324123      16.09225937
  328      77.43720501      11.54702043
  329      77.84713372      14.25175131
  330      81.11462683      12.37310061
  331      76.74919947      18.72025584
  332      83.91008599      14.29502858
  333      82.32706999      30.40855775
  334      84.08616480      31.96312813
  335      76.69267598      27.33088690
  336      73.16901969      30.77518654
  337      68.86051339      30.50424439
  338      98.02026265      73.63729063
  339     100.00000000      87.50000000
  340      88.42310888      78.34286393
  341      85.27659707      53.06288758
  342      83.51244968      51.69123705
  343      63.38878050      59.78159223
  344      60.64765353      58.73270596
  345      63.13424368      72.79625391
  346      66.98173213      75.23488812
  347      68.76197816      78.09491366
  348      58.41840760      79.27686166
  349      50.17256250      80.16110198
  350      55.29467948      75.02797072
  351      53.01411196      77.87442547
  352      52.01131089      74.73416758
  353      50.78271666      71.29953283
  354      62.59201767      49.21572772
  355      52.34950038      55.28013081
  356      53.36667297      46.34291774
  357      64.95318683      45.40307018
  358      62.53585561      46.31772899
  359      59.74643752      44.42109543
  360      97.98179596      20.07936104
  361      95.46223861      20.53644225
  362      93.99250044      18.85963886
  363      94.38390930      14.77137723
  364     100.00000000      15.62500000
  365      97.36457467      14.06250000
  366      97.69534130      16.50840446
  367     100.00000000       6.25000000
  368      87.50000000       0.00000000
  369      96.36633645       9.37500000
  370      97.65608316      11.55037993
  371      94.70811691      11.82815557
  372     100.00000000       9.37500000
  373      91.18056363      12.92904872
  374      91.54827185       7.90522908
  375      93.73133163       9.38087638
  376      93.75000000       0.00000000
  377      95.03927876       5.09328729
  378      71.42605971      26.16873766
  379      62.58444691      23.97877584
  380      80.01601225      14.24316845
  381      81.25000000       0.00000000
  382      84.34237540      10.67228777
  383      86.46266494      14.91269776
  384     100.00000000      81.25000000
  385      90.48024267      76.55285134
  386      92.02291558      80.40280014
  387      87.63465493      75.35968518
  388      66.75069291      79.25037817
  389      69.13925600      82.79268443
  390      68.78164243      80.45736939
  391      72.95979259      79.24128220
  392      71.28398914      81.26921650
  393      75.71685895      83.22598657
  394      73.77637928      81.62245212
  395      77.58924333      78.98428422
  396      72.26910049      85.42233049
  397      54.99682120      79.64377428
  398      53.03796035      84.12932288
  399      54.64996926      82.16279868
  400      57.27273126      85.83863945
  401      52.14636050      81.75449221
  402      48.33482017      84.45679645
  403      51.79447433      68.99482157
  404      45.30835387      75.19480886
  405      53.95648404      53.59841325
  406      54.79837189      56.01153263
  407      51.50761253      52.86701143
  408      47.65076148      55.56600604
  409      48.47151182      52.63364592
  410      42.86287111      52.64486205
  411      45.66039724      49.24179328
  412      45.66877323      53.43021754
  413      47.69057290      50.42004563
  414      48.27504511      47.07481389
  415      42.87360354      58.01163020
  416      43.62509058      55.32673258
  417      38.48976425      55.33700217
  418      41.05597914      54.60765340
  419      38.47993752      50.42313672
  420      40.35808352      52.15210650
  421      41.87130577      48.62374133
  422      52.43277154      48.86138121
  423      50.83944342      46.83815294
  424      54.96417421      48.36769349
  425      49.13770969      42.41051264
  426      56.57766975      45.45209919
  427      51.59664847      44.00628118
  428      49.30021546      44.85249388
  429      44.84806996      44.14630966
  430      53.19603648      38.84937679
  431      56.91728763      41.11083589
  432      51.66908544      41.20227387
  433      48.26152352      37.31896237
  434      54.29453909      41.23418648
  435      50.51295194      38.78006366
  436      51.97736726      34.05835152
  437      51.91104326      36.62572807
  438      56.49545563      35.45961394
  439      57.64641446      43.35179146
  440      55.23994197      43.44932438
  441      59.98743315      41.35101397
  442      58.69441213      38.13682885
  443      91.92967014      16.59927665
  444      89.62294999      10.28967572
  445      86.65229842       5.92149854
  446      91.87699626      10.73875655
  447      88.79964161       7.65537117
  448      86.92513536       9.68702513
  449      90.42906569       3.44074138
  450      72.72112350      24.08014422
  451      73.55796785      26.63917167
  452      69.78132803      27.96347328
  453      67.44038191      25.08998760
  454      64.35973139      27.07969210
  455      85.31928088      12.62602082
  456      80.37673649       7.05959003
  457     100.00000000      78.12500000
  458      96.13241376      79.68750000
  459      98.38183090      79.68750000
  460      97.25712233      82.47144073
  461      97.25712233      77.64353647
  462     100.00000000      84.37500000
  463      94.41781432      81.99935682
  464      96.88364911      85.93750000
  465      90.39011038      85.44657327
  466      91.91781558      83.15495451
  467      94.22388435      84.86183673
  468      88.09117501      82.25895956
  469      87.50000000     100.00000000
  470      93.64691250      90.11469756
  471      94.67618780      87.56963511
  472     100.00000000      93.75000000
  473     100.00000000      90.62500000
  474      91.84171783      87.90397870
  475      97.35575265      88.88488193
  476      88.82532050      92.20945028
  477      97.07706544      92.18750000
  478      88.07280214      88.47286458
  479      90.94070213      90.48210461
  480      93.75000000     100.00000000
  481      92.94097548      95.06524806
  482      92.59131859      92.48978006
  483      96.80619623      96.20939397
  484      97.84852874      94.25952536
  485     100.00000000      96.87500000
  486      95.31177721      94.15699730
  487      86.52394940      73.28466331
  488      71.33144021      76.94500296
  489      48.59487003      74.01919774
  490      55.83959967      58.52900536
  491      43.53529598      50.34623421
  492      58.36303352      47.07761940
  493      45.69582615      46.62365233
  494      43.01644304      46.15682348
  495      38.07070961      45.36026993
  496      41.06242204      42.53707767
  497      40.43124165      46.45602317
  498      62.27396010      41.92150150
  499      61.65629563      39.52964499
  500      63.51089353      37.88457234
  501      61.04848705      36.97648163
  502      55.94788040      38.51359859
  503      54.35837374      36.65252018
  504      69.66058041      24.78933294
  505      65.91033273      20.61052742
  506      57.97502005      28.67632363
  507      64.98265461      24.66443041
  508      81.70637379       9.58293344
  509      79.02773550       9.38241326
  510      74.39521889       7.64514506
  511      77.33651369       6.84708662
  512      83.60185792       6.97214926
  513      76.40094325       9.21817578
  514      74.32725925      11.53587325
  515      74.94220995       3.84192203
  516      79.11064371       3.31916987
  517      84.37500000       0.00000000
  518      75.68765417      13.41163331
  519      68.66471934      11.93189905
  520      81.91980591       4.45278769
  521      85.93750000       2.79774412
  522      71.55239038      12.54033212
  523      82.81250000       2.04173385
  524      88.30291021       2.28360284
  525      90.62500000       0.00000000
  526      84.35108397       4.65073653
  527      71.07358196      15.17733817
  528      67.98233473      14.95507019
  529      62.50000000       0.00000000
  530      72.03915237       9.54994909
  531      66.73069882      17.70379618
  532      62.96427861      12.23380496
  533      68.75000000       0.00000000
  534      65.85707552      12.88676174
  535      61.16768316      17.70287904
  536      70.41522779       5.13178422
  537      63.74280066      15.51917871
  538      63.94906165      18.48786685
  539      71.97807024       7.06487588
  540      68.69171409       8.38894052
  541      63.14085337      21.20203213
  542      65.14720451       9.29724300
  543      58.23423756      21.66295841
  544      60.75667684      22.16840712
  545      59.35060358      25.41584931
  546      89.62555932      80.41690076
  547      83.57545315      79.90408510
  548      87.14640980      85.36314581
  549      82.09693246      88.56024325
  550      84.84944474      82.96819627
  551      85.07254465      87.67380157
  552      80.28239203      83.07017391
  553      85.82809982      90.86899803
  554      82.78256490      85.42428159
  555      82.54604139      82.12899714
  556      80.36797626      80.08324469
  557      81.25000000     100.00000000
  558      79.54395016      86.35913816
  559      79.93948195      77.10418926
  560      85.48834226      95.64977285
  561      77.36584080      76.29599524
  562      75.20325803      77.82913757
  563      82.09854165      75.66476120
  564      86.52970063      93.32131929
  565      89.20238717      95.91372062
  566      82.81565573      93.05737152
  567      49.75520423      76.99472444
  568      46.33298222      79.05650005
  569      45.44117783      70.38446232
  570      61.56258999      33.26256050
  571      67.62826309      22.52477349
  572      68.55934767      19.96117945
  573      61.39254211      28.77841747
  574      77.14696475       4.54171719
  575      78.12500000       0.00000000
  576      77.01191089       2.13646804
  577      71.87500000       0.00000000
  578      73.43750000       1.89789259
  579      70.80852249       2.47014631
  580      67.28940284       3.31002292
  581      67.25425248      10.14957022
  582      58.85002732       6.89579855
  583      54.66849858      25.36089868
  584      86.32575997      80.13720504
  585      85.15370210      77.62456068
  586      78.03872678      84.29380374
  587      77.85475044      81.63559294
  588      75.68793086      87.58824591
  589      90.59284978      93.90085562
  590      90.62500000     100.00000000
  591      89.06250000      98.25319808
  592      86.71291305      97.72373449
  593      91.46508860      97.22293797
  594      84.37500000     100.00000000
  595      82.81250000      97.28253250
  596      78.12500000      96.39523548
  597      80.31443315      97.65412424
  598      78.12500000     100.00000000
  599      80.50955208      94.78142477
  600      76.88685801      91.99716646
  601      79.99999848      91.69548748
  602      78.23601440      93.99066772
  603      74.55919969      95.02576260
  604      78.19417534      89.27419119
  605      83.37645661      90.66174861
  606      47.27018768      76.74105122
  607      47.67078885      81.63176724
  608      49.88364743      82.60218426
  609      50.72731271      84.88078348
  610      53.21476888      88.60119402
  611      48.78651972      88.87015071
  612      25.00000000     100.00000000
  613      42.43664725      82.71569575
  614      44.90085607      81.43558201
  615      45.04793896      84.73056352
  616      41.59626299      78.08611458
  617      43.84058876      79.17675075
  618      46.87811761      86.83568004
  619      37.50000000     100.00000000
  620      42.23123742      89.02752365
  621      44.24557082      87.27627143
  622      45.98520517      89.58557015
  623      41.22454379      85.83550584
  624      48.65410375      94.19381835
  625      36.06932359      89.21610484
  626      36.30003288      82.12687574
  627      47.96953676      91.51331045
  628      51.14094935      91.04573097
  629      43.75000000     100.00000000
  630      43.56001921      94.06711281
  631      45.40462573      92.16835549
  632      39.12368567      88.25282486
  633      39.28530120      83.28670725
  634      62.50000000     100.00000000
  635      39.74567243      92.37786292
  636      36.63513172      85.68614968
  637      38.85192806      79.98037966
  638      56.51134877      93.49977242
  639      38.15589103      90.50816374
  640      35.63632086      94.26125717
  641      35.94566476      91.74664926
  642      31.33328668      92.45557182
  643      33.37071842      90.35252707
  644      41.26257428      80.53775331
  645      33.77083507      76.52982153
  646      54.17223244      91.51538634
  647      28.62388437      87.79224503
  648      33.54821139      87.00167815
  649      37.98544187      75.78997589
  650      35.82476353      78.97166626
  651      56.53948119      89.12323773
  652      56.25000000     100.00000000
  653      52.17085904      94.41560376
  654      30.63623534      89.74181255
  655      26.17401446      92.33437192
  656      28.03950691      90.40880356
  657      23.69325918      88.06458426
  658      26.19697866      88.62376046
  659      25.93638405      83.90576842
  660      39.30512574      77.70188071
  661      40.90478422      75.18631811
  662      30.74243152      81.16186795
  663      43.10463409      76.19408944
  664      43.11025885      73.27691488
  665      32.95390286      79.30171530
  666      38.62267634      70.32191839
  667      33.43826303      82.12220174
  668      29.08642127      76.94844712
  669      40.44973658      72.43228196
  670      37.68091782      72.98332773
  671      42.04243783      69.20731494
  672      35.60921597      74.62795405
  673      31.31853914      72.31994559
  674      34.73013555      70.44184393
  675      33.13838861      74.07904634
  676      30.63843310      74.84443680
  677      27.80420739      74.37820727
  678      34.32428156      84.54321417
  679      30.73182541      84.76089764
  680      30.62390566      78.77630930
  681      27.14135880      80.14506252
  682      25.29983673      69.71801751
  683      25.89481465      72.40129350
  684       0.00000000      75.00000000
  685      28.57725397      70.39889920
  686      20.84061759      72.11438723
  687      23.40817733      71.54506772
  688      21.11515103      67.27815236
  689      22.86340972      69.08823396
  690      25.19805572      65.08401279
  691      29.10256328      72.56569184
  692      31.66423482      68.91025059
  693      27.50090343      67.35155330
  694      30.36920336      62.13546934
  695      28.19945051      64.33900677
  696      25.37806296      59.39086481
  697      31.50981275      65.42860279
  698      27.48657286      61.46704710
  699      24.67078069      62.21792155
  700      30.11281635      56.69114957
  701      22.07920781      64.17624045
  702      29.47321981      59.44946666
  703      20.76095045      59.73774401
  704      34.68275336      59.20413634
  705      23.12700956      60.32969239
  706      22.83669466      56.46547523
  707      16.09834532      64.01818970
  708      32.11258451      60.06148061
  709      34.53798660      63.05128231
  710      19.06648732      64.94067153
  711      16.30119535      69.43079313
  712      18.40072742      61.84646436
  713      16.89273554      66.69852091
  714       0.00000000      62.50000000
  715      11.74405260      66.76659001
  716      14.30879456      66.00645786
  717      13.69829331      68.65346201
  718      11.67891898      61.83994396
  719      13.62175069      73.65635483
  720      13.58144311      63.55232036
  721       9.45713240      71.09060559
  722      14.36555942      71.16570291
  723      15.04159474      60.01694742
  724      11.22549772      69.25910271
  725      17.45316840      72.66329529
  726      11.90127862      71.78616121
  727       7.17305579      67.11581457
  728       9.44617728      75.77118039
  729      20.78904662      62.14441229
  730      48.20634463      70.29097197
  731      46.74141623      67.90219690
  732      48.09862396      64.21720543
  733      46.31077107      72.81548070
  734      63.98657184      33.23503519
  735      62.36013715      35.26550485
  736      60.19794925      34.96620200
  737      58.34475653      32.08339969
  738      61.98043316      31.00141923
  739      61.68069662      26.30216058
  740      65.62500000       0.00000000
  741      64.06250000       2.85915655
  742      65.27341941       5.96555795
  743      56.25000000       0.00000000
  744      62.21920284       7.51808768
  745      60.12282662       3.15562455