# File generated by Flopy version 3.10.0.dev5 on 01/30/2026 at 12:53:36.
BEGIN options
END options

BEGIN dimensions
  MAXBOUND  2
END dimensions

BEGIN period  1
  1 1 1 0.00000000E+00
  1 1 3 0.00000000E+00
END period  1

