# File generated by Flopy version 3.8.0 on 05/07/2026 at 20:45:19.
BEGIN options
  SAVE_FLOWS
END options

BEGIN griddata
  icelltype
    CONSTANT  0
  k
    INTERNAL  FACTOR  1.0
         9.03532492       3.27800666       8.51327105       8.90378129       7.27104630       7.40576868       1.85850867       9.90139020       7.24422852       4.84970215
         2.48286616       1.90552422       3.94230772       7.85301005       8.64099537       6.28266461       3.61823996       6.03964774       5.07683362       8.91206112
         3.44018223       9.61517699       7.44619974       5.76972366       2.65193724       9.93204709       6.86216396       7.94248543       4.09069695       6.30846216
         3.50983983       6.80785854       2.30900492       4.17730393       3.26659823       4.66717204       9.33313120       1.15720755       8.07813420       8.69349145
         7.17014947       7.65917936       6.88878577       9.96984687       2.60707326       2.82156467       9.38641141       3.59948160       6.09063436       9.53546459
         1.87985763       4.09022494       5.42654099       9.18192774       3.17461089       7.12057519       2.18905591       7.45960209       7.64215446       4.42445113
         2.66027640       8.08274721       3.91542738       6.95383153       3.79001476       6.17055982       7.26351159       8.55117047       7.93114692       7.55009178
         1.86305850       6.35528411       1.77534568       4.91211768       9.39378242       7.77918986       4.42992042       1.55930254       1.07167512       1.56781346
         8.90626399       2.47334175       8.89014397       3.29652286       1.47653172       1.25223261       4.36881738       8.65831858       4.08569433       3.92536518
         7.54218746       4.84961233       9.20858466       4.79328411       4.97490607       6.00044864       2.57643294       2.51481497       3.86501638       6.11285743
END griddata

