# File generated by Flopy version 3.10.0.dev5 on 01/30/2026 at 12:53:50.
BEGIN options
  BUDGET  FILEOUT  gwf-lgr-child.bud
  HEAD  FILEOUT  gwf-lgr-child.hds
  HEAD  PRINT_FORMAT  COLUMNS  10  WIDTH  15  DIGITS  6  GENERAL
END options

BEGIN period  1
  SAVE  HEAD  LAST
  SAVE  BUDGET  LAST
  PRINT  HEAD  LAST
  PRINT  BUDGET  LAST
END period  1

