# File generated by Flopy version 3.10.0.dev5 on 01/30/2026 at 12:53:50.
BEGIN options
END options

BEGIN griddata
  strt  LAYERED
    INTERNAL  FACTOR  1.0
          49.03599930      49.03599930      49.03599930      48.67900085      48.67900085      48.67900085      48.32099915      48.32099915      48.32099915      47.96400070      47.96400070      47.96400070      47.60699844      47.60699844      47.60699844      47.25000000      47.25000000      47.25000000
          49.03599930      49.03599930      49.03599930      48.67900085      48.67900085      48.67900085      48.32099915      48.32099915      48.32099915      47.96400070      47.96400070      47.96400070      47.60699844      47.60699844      47.60699844      47.25000000      47.25000000      47.25000000
          49.03599930      49.03599930      49.03599930      48.67900085      48.67900085      48.67900085      48.32099915      48.32099915      48.32099915      47.96400070      47.96400070      47.96400070      47.60699844      47.60699844      47.60699844      47.25000000      47.25000000      47.25000000
          49.03599930      49.03599930      49.03599930      48.67900085      48.67900085      48.67900085      48.32099915      48.32099915      48.32099915      47.96400070      47.96400070      47.96400070      47.60699844      47.60699844      47.60699844      47.25000000      47.25000000      47.25000000
          49.03599930      49.03599930      49.03599930      48.67900085      48.67900085      48.67900085      48.32099915      48.32099915      48.32099915      47.96400070      47.96400070      47.96400070      47.60699844      47.60699844      47.60699844      47.25000000      47.25000000      47.25000000
          49.03599930      49.03599930      49.03599930      48.67900085      48.67900085      48.67900085      48.32099915      48.32099915      48.32099915      47.96400070      47.96400070      47.96400070      47.60699844      47.60699844      47.60699844      47.25000000      47.25000000      47.25000000
          49.03599930      49.03599930      49.03599930      48.67900085      48.67900085      48.67900085      48.32099915      48.32099915      48.32099915      47.96400070      47.96400070      47.96400070      47.60699844      47.60699844      47.60699844      47.25000000      47.25000000      47.25000000
          49.03599930      49.03599930      49.03599930      48.67900085      48.67900085      48.67900085      48.32099915      48.32099915      48.32099915      47.96400070      47.96400070      47.96400070      47.60699844      47.60699844      47.60699844      47.25000000      47.25000000      47.25000000
          49.03599930      49.03599930      49.03599930      48.67900085      48.67900085      48.67900085      48.32099915      48.32099915      48.32099915      47.96400070      47.96400070      47.96400070      47.60699844      47.60699844      47.60699844      47.25000000      47.25000000      47.25000000
          49.03599930      49.03599930      49.03599930      48.67900085      48.67900085      48.67900085      48.32099915      48.32099915      48.32099915      47.96400070      47.96400070      47.96400070      47.60699844      47.60699844      47.60699844      47.25000000      47.25000000      47.25000000
          49.03599930      49.03599930      49.03599930      48.67900085      48.67900085      48.67900085      48.32099915      48.32099915      48.32099915      47.96400070      47.96400070      47.96400070      47.60699844      47.60699844      47.60699844      47.25000000      47.25000000      47.25000000
          49.03599930      49.03599930      49.03599930      48.67900085      48.67900085      48.67900085      48.32099915      48.32099915      48.32099915      47.96400070      47.96400070      47.96400070      47.60699844      47.60699844      47.60699844      47.25000000      47.25000000      47.25000000
          49.03599930      49.03599930      49.03599930      48.67900085      48.67900085      48.67900085      48.32099915      48.32099915      48.32099915      47.96400070      47.96400070      47.96400070      47.60699844      47.60699844      47.60699844      47.25000000      47.25000000      47.25000000
          49.03599930      49.03599930      49.03599930      48.67900085      48.67900085      48.67900085      48.32099915      48.32099915      48.32099915      47.96400070      47.96400070      47.96400070      47.60699844      47.60699844      47.60699844      47.25000000      47.25000000      47.25000000
          49.03599930      49.03599930      49.03599930      48.67900085      48.67900085      48.67900085      48.32099915      48.32099915      48.32099915      47.96400070      47.96400070      47.96400070      47.60699844      47.60699844      47.60699844      47.25000000      47.25000000      47.25000000
    INTERNAL  FACTOR  1.0
          49.03599930      49.03599930      49.03599930      48.67900085      48.67900085      48.67900085      48.32099915      48.32099915      48.32099915      47.96400070      47.96400070      47.96400070      47.60699844      47.60699844      47.60699844      47.25000000      47.25000000      47.25000000
          49.03599930      49.03599930      49.03599930      48.67900085      48.67900085      48.67900085      48.32099915      48.32099915      48.32099915      47.96400070      47.96400070      47.96400070      47.60699844      47.60699844      47.60699844      47.25000000      47.25000000      47.25000000
          49.03599930      49.03599930      49.03599930      48.67900085      48.67900085      48.67900085      48.32099915      48.32099915      48.32099915      47.96400070      47.96400070      47.96400070      47.60699844      47.60699844      47.60699844      47.25000000      47.25000000      47.25000000
          49.03599930      49.03599930      49.03599930      48.67900085      48.67900085      48.67900085      48.32099915      48.32099915      48.32099915      47.96400070      47.96400070      47.96400070      47.60699844      47.60699844      47.60699844      47.25000000      47.25000000      47.25000000
          49.03599930      49.03599930      49.03599930      48.67900085      48.67900085      48.67900085      48.32099915      48.32099915      48.32099915      47.96400070      47.96400070      47.96400070      47.60699844      47.60699844      47.60699844      47.25000000      47.25000000      47.25000000
          49.03599930      49.03599930      49.03599930      48.67900085      48.67900085      48.67900085      48.32099915      48.32099915      48.32099915      47.96400070      47.96400070      47.96400070      47.60699844      47.60699844      47.60699844      47.25000000      47.25000000      47.25000000
          49.03599930      49.03599930      49.03599930      48.67900085      48.67900085      48.67900085      48.32099915      48.32099915      48.32099915      47.96400070      47.96400070      47.96400070      47.60699844      47.60699844      47.60699844      47.25000000      47.25000000      47.25000000
          49.03599930      49.03599930      49.03599930      48.67900085      48.67900085      48.67900085      48.32099915      48.32099915      48.32099915      47.96400070      47.96400070      47.96400070      47.60699844      47.60699844      47.60699844      47.25000000      47.25000000      47.25000000
          49.03599930      49.03599930      49.03599930      48.67900085      48.67900085      48.67900085      48.32099915      48.32099915      48.32099915      47.96400070      47.96400070      47.96400070      47.60699844      47.60699844      47.60699844      47.25000000      47.25000000      47.25000000
          49.03599930      49.03599930      49.03599930      48.67900085      48.67900085      48.67900085      48.32099915      48.32099915      48.32099915      47.96400070      47.96400070      47.96400070      47.60699844      47.60699844      47.60699844      47.25000000      47.25000000      47.25000000
          49.03599930      49.03599930      49.03599930      48.67900085      48.67900085      48.67900085      48.32099915      48.32099915      48.32099915      47.96400070      47.96400070      47.96400070      47.60699844      47.60699844      47.60699844      47.25000000      47.25000000      47.25000000
          49.03599930      49.03599930      49.03599930      48.67900085      48.67900085      48.67900085      48.32099915      48.32099915      48.32099915      47.96400070      47.96400070      47.96400070      47.60699844      47.60699844      47.60699844      47.25000000      47.25000000      47.25000000
          49.03599930      49.03599930      49.03599930      48.67900085      48.67900085      48.67900085      48.32099915      48.32099915      48.32099915      47.96400070      47.96400070      47.96400070      47.60699844      47.60699844      47.60699844      47.25000000      47.25000000      47.25000000
          49.03599930      49.03599930      49.03599930      48.67900085      48.67900085      48.67900085      48.32099915      48.32099915      48.32099915      47.96400070      47.96400070      47.96400070      47.60699844      47.60699844      47.60699844      47.25000000      47.25000000      47.25000000
          49.03599930      49.03599930      49.03599930      48.67900085      48.67900085      48.67900085      48.32099915      48.32099915      48.32099915      47.96400070      47.96400070      47.96400070      47.60699844      47.60699844      47.60699844      47.25000000      47.25000000      47.25000000
    INTERNAL  FACTOR  1.0
          49.03599930      49.03599930      49.03599930      48.67900085      48.67900085      48.67900085      48.32099915      48.32099915      48.32099915      47.96400070      47.96400070      47.96400070      47.60699844      47.60699844      47.60699844      47.25000000      47.25000000      47.25000000
          49.03599930      49.03599930      49.03599930      48.67900085      48.67900085      48.67900085      48.32099915      48.32099915      48.32099915      47.96400070      47.96400070      47.96400070      47.60699844      47.60699844      47.60699844      47.25000000      47.25000000      47.25000000
          49.03599930      49.03599930      49.03599930      48.67900085      48.67900085      48.67900085      48.32099915      48.32099915      48.32099915      47.96400070      47.96400070      47.96400070      47.60699844      47.60699844      47.60699844      47.25000000      47.25000000      47.25000000
          49.03599930      49.03599930      49.03599930      48.67900085      48.67900085      48.67900085      48.32099915      48.32099915      48.32099915      47.96400070      47.96400070      47.96400070      47.60699844      47.60699844      47.60699844      47.25000000      47.25000000      47.25000000
          49.03599930      49.03599930      49.03599930      48.67900085      48.67900085      48.67900085      48.32099915      48.32099915      48.32099915      47.96400070      47.96400070      47.96400070      47.60699844      47.60699844      47.60699844      47.25000000      47.25000000      47.25000000
          49.03599930      49.03599930      49.03599930      48.67900085      48.67900085      48.67900085      48.32099915      48.32099915      48.32099915      47.96400070      47.96400070      47.96400070      47.60699844      47.60699844      47.60699844      47.25000000      47.25000000      47.25000000
          49.03599930      49.03599930      49.03599930      48.67900085      48.67900085      48.67900085      48.32099915      48.32099915      48.32099915      47.96400070      47.96400070      47.96400070      47.60699844      47.60699844      47.60699844      47.25000000      47.25000000      47.25000000
          49.03599930      49.03599930      49.03599930      48.67900085      48.67900085      48.67900085      48.32099915      48.32099915      48.32099915      47.96400070      47.96400070      47.96400070      47.60699844      47.60699844      47.60699844      47.25000000      47.25000000      47.25000000
          49.03599930      49.03599930      49.03599930      48.67900085      48.67900085      48.67900085      48.32099915      48.32099915      48.32099915      47.96400070      47.96400070      47.96400070      47.60699844      47.60699844      47.60699844      47.25000000      47.25000000      47.25000000
          49.03599930      49.03599930      49.03599930      48.67900085      48.67900085      48.67900085      48.32099915      48.32099915      48.32099915      47.96400070      47.96400070      47.96400070      47.60699844      47.60699844      47.60699844      47.25000000      47.25000000      47.25000000
          49.03599930      49.03599930      49.03599930      48.67900085      48.67900085      48.67900085      48.32099915      48.32099915      48.32099915      47.96400070      47.96400070      47.96400070      47.60699844      47.60699844      47.60699844      47.25000000      47.25000000      47.25000000
          49.03599930      49.03599930      49.03599930      48.67900085      48.67900085      48.67900085      48.32099915      48.32099915      48.32099915      47.96400070      47.96400070      47.96400070      47.60699844      47.60699844      47.60699844      47.25000000      47.25000000      47.25000000
          49.03599930      49.03599930      49.03599930      48.67900085      48.67900085      48.67900085      48.32099915      48.32099915      48.32099915      47.96400070      47.96400070      47.96400070      47.60699844      47.60699844      47.60699844      47.25000000      47.25000000      47.25000000
          49.03599930      49.03599930      49.03599930      48.67900085      48.67900085      48.67900085      48.32099915      48.32099915      48.32099915      47.96400070      47.96400070      47.96400070      47.60699844      47.60699844      47.60699844      47.25000000      47.25000000      47.25000000
          49.03599930      49.03599930      49.03599930      48.67900085      48.67900085      48.67900085      48.32099915      48.32099915      48.32099915      47.96400070      47.96400070      47.96400070      47.60699844      47.60699844      47.60699844      47.25000000      47.25000000      47.25000000
    INTERNAL  FACTOR  1.0
          49.03599930      49.03599930      49.03599930      48.67900085      48.67900085      48.67900085      48.32099915      48.32099915      48.32099915      47.96400070      47.96400070      47.96400070      47.60699844      47.60699844      47.60699844      47.25000000      47.25000000      47.25000000
          49.03599930      49.03599930      49.03599930      48.67900085      48.67900085      48.67900085      48.32099915      48.32099915      48.32099915      47.96400070      47.96400070      47.96400070      47.60699844      47.60699844      47.60699844      47.25000000      47.25000000      47.25000000
          49.03599930      49.03599930      49.03599930      48.67900085      48.67900085      48.67900085      48.32099915      48.32099915      48.32099915      47.96400070      47.96400070      47.96400070      47.60699844      47.60699844      47.60699844      47.25000000      47.25000000      47.25000000
          49.03599930      49.03599930      49.03599930      48.67900085      48.67900085      48.67900085      48.32099915      48.32099915      48.32099915      47.96400070      47.96400070      47.96400070      47.60699844      47.60699844      47.60699844      47.25000000      47.25000000      47.25000000
          49.03599930      49.03599930      49.03599930      48.67900085      48.67900085      48.67900085      48.32099915      48.32099915      48.32099915      47.96400070      47.96400070      47.96400070      47.60699844      47.60699844      47.60699844      47.25000000      47.25000000      47.25000000
          49.03599930      49.03599930      49.03599930      48.67900085      48.67900085      48.67900085      48.32099915      48.32099915      48.32099915      47.96400070      47.96400070      47.96400070      47.60699844      47.60699844      47.60699844      47.25000000      47.25000000      47.25000000
          49.03599930      49.03599930      49.03599930      48.67900085      48.67900085      48.67900085      48.32099915      48.32099915      48.32099915      47.96400070      47.96400070      47.96400070      47.60699844      47.60699844      47.60699844      47.25000000      47.25000000      47.25000000
          49.03599930      49.03599930      49.03599930      48.67900085      48.67900085      48.67900085      48.32099915      48.32099915      48.32099915      47.96400070      47.96400070      47.96400070      47.60699844      47.60699844      47.60699844      47.25000000      47.25000000      47.25000000
          49.03599930      49.03599930      49.03599930      48.67900085      48.67900085      48.67900085      48.32099915      48.32099915      48.32099915      47.96400070      47.96400070      47.96400070      47.60699844      47.60699844      47.60699844      47.25000000      47.25000000      47.25000000
          49.03599930      49.03599930      49.03599930      48.67900085      48.67900085      48.67900085      48.32099915      48.32099915      48.32099915      47.96400070      47.96400070      47.96400070      47.60699844      47.60699844      47.60699844      47.25000000      47.25000000      47.25000000
          49.03599930      49.03599930      49.03599930      48.67900085      48.67900085      48.67900085      48.32099915      48.32099915      48.32099915      47.96400070      47.96400070      47.96400070      47.60699844      47.60699844      47.60699844      47.25000000      47.25000000      47.25000000
          49.03599930      49.03599930      49.03599930      48.67900085      48.67900085      48.67900085      48.32099915      48.32099915      48.32099915      47.96400070      47.96400070      47.96400070      47.60699844      47.60699844      47.60699844      47.25000000      47.25000000      47.25000000
          49.03599930      49.03599930      49.03599930      48.67900085      48.67900085      48.67900085      48.32099915      48.32099915      48.32099915      47.96400070      47.96400070      47.96400070      47.60699844      47.60699844      47.60699844      47.25000000      47.25000000      47.25000000
          49.03599930      49.03599930      49.03599930      48.67900085      48.67900085      48.67900085      48.32099915      48.32099915      48.32099915      47.96400070      47.96400070      47.96400070      47.60699844      47.60699844      47.60699844      47.25000000      47.25000000      47.25000000
          49.03599930      49.03599930      49.03599930      48.67900085      48.67900085      48.67900085      48.32099915      48.32099915      48.32099915      47.96400070      47.96400070      47.96400070      47.60699844      47.60699844      47.60699844      47.25000000      47.25000000      47.25000000
    INTERNAL  FACTOR  1.0
          49.03599930      49.03599930      49.03599930      48.67900085      48.67900085      48.67900085      48.32099915      48.32099915      48.32099915      47.96400070      47.96400070      47.96400070      47.60699844      47.60699844      47.60699844      47.25000000      47.25000000      47.25000000
          49.03599930      49.03599930      49.03599930      48.67900085      48.67900085      48.67900085      48.32099915      48.32099915      48.32099915      47.96400070      47.96400070      47.96400070      47.60699844      47.60699844      47.60699844      47.25000000      47.25000000      47.25000000
          49.03599930      49.03599930      49.03599930      48.67900085      48.67900085      48.67900085      48.32099915      48.32099915      48.32099915      47.96400070      47.96400070      47.96400070      47.60699844      47.60699844      47.60699844      47.25000000      47.25000000      47.25000000
          49.03599930      49.03599930      49.03599930      48.67900085      48.67900085      48.67900085      48.32099915      48.32099915      48.32099915      47.96400070      47.96400070      47.96400070      47.60699844      47.60699844      47.60699844      47.25000000      47.25000000      47.25000000
          49.03599930      49.03599930      49.03599930      48.67900085      48.67900085      48.67900085      48.32099915      48.32099915      48.32099915      47.96400070      47.96400070      47.96400070      47.60699844      47.60699844      47.60699844      47.25000000      47.25000000      47.25000000
          49.03599930      49.03599930      49.03599930      48.67900085      48.67900085      48.67900085      48.32099915      48.32099915      48.32099915      47.96400070      47.96400070      47.96400070      47.60699844      47.60699844      47.60699844      47.25000000      47.25000000      47.25000000
          49.03599930      49.03599930      49.03599930      48.67900085      48.67900085      48.67900085      48.32099915      48.32099915      48.32099915      47.96400070      47.96400070      47.96400070      47.60699844      47.60699844      47.60699844      47.25000000      47.25000000      47.25000000
          49.03599930      49.03599930      49.03599930      48.67900085      48.67900085      48.67900085      48.32099915      48.32099915      48.32099915      47.96400070      47.96400070      47.96400070      47.60699844      47.60699844      47.60699844      47.25000000      47.25000000      47.25000000
          49.03599930      49.03599930      49.03599930      48.67900085      48.67900085      48.67900085      48.32099915      48.32099915      48.32099915      47.96400070      47.96400070      47.96400070      47.60699844      47.60699844      47.60699844      47.25000000      47.25000000      47.25000000
          49.03599930      49.03599930      49.03599930      48.67900085      48.67900085      48.67900085      48.32099915      48.32099915      48.32099915      47.96400070      47.96400070      47.96400070      47.60699844      47.60699844      47.60699844      47.25000000      47.25000000      47.25000000
          49.03599930      49.03599930      49.03599930      48.67900085      48.67900085      48.67900085      48.32099915      48.32099915      48.32099915      47.96400070      47.96400070      47.96400070      47.60699844      47.60699844      47.60699844      47.25000000      47.25000000      47.25000000
          49.03599930      49.03599930      49.03599930      48.67900085      48.67900085      48.67900085      48.32099915      48.32099915      48.32099915      47.96400070      47.96400070      47.96400070      47.60699844      47.60699844      47.60699844      47.25000000      47.25000000      47.25000000
          49.03599930      49.03599930      49.03599930      48.67900085      48.67900085      48.67900085      48.32099915      48.32099915      48.32099915      47.96400070      47.96400070      47.96400070      47.60699844      47.60699844      47.60699844      47.25000000      47.25000000      47.25000000
          49.03599930      49.03599930      49.03599930      48.67900085      48.67900085      48.67900085      48.32099915      48.32099915      48.32099915      47.96400070      47.96400070      47.96400070      47.60699844      47.60699844      47.60699844      47.25000000      47.25000000      47.25000000
          49.03599930      49.03599930      49.03599930      48.67900085      48.67900085      48.67900085      48.32099915      48.32099915      48.32099915      47.96400070      47.96400070      47.96400070      47.60699844      47.60699844      47.60699844      47.25000000      47.25000000      47.25000000
    INTERNAL  FACTOR  1.0
          49.03599930      49.03599930      49.03599930      48.67900085      48.67900085      48.67900085      48.32099915      48.32099915      48.32099915      47.96400070      47.96400070      47.96400070      47.60699844      47.60699844      47.60699844      47.25000000      47.25000000      47.25000000
          49.03599930      49.03599930      49.03599930      48.67900085      48.67900085      48.67900085      48.32099915      48.32099915      48.32099915      47.96400070      47.96400070      47.96400070      47.60699844      47.60699844      47.60699844      47.25000000      47.25000000      47.25000000
          49.03599930      49.03599930      49.03599930      48.67900085      48.67900085      48.67900085      48.32099915      48.32099915      48.32099915      47.96400070      47.96400070      47.96400070      47.60699844      47.60699844      47.60699844      47.25000000      47.25000000      47.25000000
          49.03599930      49.03599930      49.03599930      48.67900085      48.67900085      48.67900085      48.32099915      48.32099915      48.32099915      47.96400070      47.96400070      47.96400070      47.60699844      47.60699844      47.60699844      47.25000000      47.25000000      47.25000000
          49.03599930      49.03599930      49.03599930      48.67900085      48.67900085      48.67900085      48.32099915      48.32099915      48.32099915      47.96400070      47.96400070      47.96400070      47.60699844      47.60699844      47.60699844      47.25000000      47.25000000      47.25000000
          49.03599930      49.03599930      49.03599930      48.67900085      48.67900085      48.67900085      48.32099915      48.32099915      48.32099915      47.96400070      47.96400070      47.96400070      47.60699844      47.60699844      47.60699844      47.25000000      47.25000000      47.25000000
          49.03599930      49.03599930      49.03599930      48.67900085      48.67900085      48.67900085      48.32099915      48.32099915      48.32099915      47.96400070      47.96400070      47.96400070      47.60699844      47.60699844      47.60699844      47.25000000      47.25000000      47.25000000
          49.03599930      49.03599930      49.03599930      48.67900085      48.67900085      48.67900085      48.32099915      48.32099915      48.32099915      47.96400070      47.96400070      47.96400070      47.60699844      47.60699844      47.60699844      47.25000000      47.25000000      47.25000000
          49.03599930      49.03599930      49.03599930      48.67900085      48.67900085      48.67900085      48.32099915      48.32099915      48.32099915      47.96400070      47.96400070      47.96400070      47.60699844      47.60699844      47.60699844      47.25000000      47.25000000      47.25000000
          49.03599930      49.03599930      49.03599930      48.67900085      48.67900085      48.67900085      48.32099915      48.32099915      48.32099915      47.96400070      47.96400070      47.96400070      47.60699844      47.60699844      47.60699844      47.25000000      47.25000000      47.25000000
          49.03599930      49.03599930      49.03599930      48.67900085      48.67900085      48.67900085      48.32099915      48.32099915      48.32099915      47.96400070      47.96400070      47.96400070      47.60699844      47.60699844      47.60699844      47.25000000      47.25000000      47.25000000
          49.03599930      49.03599930      49.03599930      48.67900085      48.67900085      48.67900085      48.32099915      48.32099915      48.32099915      47.96400070      47.96400070      47.96400070      47.60699844      47.60699844      47.60699844      47.25000000      47.25000000      47.25000000
          49.03599930      49.03599930      49.03599930      48.67900085      48.67900085      48.67900085      48.32099915      48.32099915      48.32099915      47.96400070      47.96400070      47.96400070      47.60699844      47.60699844      47.60699844      47.25000000      47.25000000      47.25000000
          49.03599930      49.03599930      49.03599930      48.67900085      48.67900085      48.67900085      48.32099915      48.32099915      48.32099915      47.96400070      47.96400070      47.96400070      47.60699844      47.60699844      47.60699844      47.25000000      47.25000000      47.25000000
          49.03599930      49.03599930      49.03599930      48.67900085      48.67900085      48.67900085      48.32099915      48.32099915      48.32099915      47.96400070      47.96400070      47.96400070      47.60699844      47.60699844      47.60699844      47.25000000      47.25000000      47.25000000
END griddata

