# File generated by Flopy version 3.8.0 on 05/07/2026 at 20:44:52.
BEGIN options
  SAVE_FLOWS
END options

BEGIN griddata
  icelltype
    CONSTANT  0
  k
    INTERNAL  FACTOR  1.0
         8.07038069       3.56284798       7.50458246       7.91081174       5.04391892       3.64769087       4.97091081       8.93745461       4.05258458       2.96901894
         1.03309001       1.29398154       7.29851844       5.89680520       3.52823116       6.51898359       8.27217363       9.66007179       6.65988820       3.74156682
         2.45210121       1.26017276       4.85982080       8.41971027       8.65243715       6.95368570       5.50977929       7.71100663       7.64063437       7.16292130
         3.05426715       1.07118127       2.15478009       5.36452965       8.52306580       2.70940042       5.92395466       4.52214057       7.89858633       6.61972905
         8.19804892       1.52335308       5.10219251       4.58358625       8.56005667       9.84694394       9.52711324       2.00977639       4.17427709       5.56321812
         3.36894592       8.31935069       8.82085299       8.91957707       4.54149563       1.68483264       8.98275650       2.58852025       1.62340903       4.55434053
         1.50544531       7.49159745       2.34416876       4.60066325       5.31916266       1.90977932       9.67797155       8.95823824       7.45805490       9.81080501
         6.69562232       1.36807724       9.54588205       5.70085466       7.97293926       9.90960712       1.13850563       6.22465629       1.09434977       6.63912600
         9.01400109       4.49843071       2.74784245       5.51796492       6.59355824       6.45644976       9.04191290       1.26512763       2.65435784       2.94638273
         6.83248334       8.96613497       2.46105026       7.36832868       2.26468124       4.72837260       7.58732830       8.74820143       7.89594713       1.99472561
END griddata

