# File generated by Flopy version 3.10.0.dev5 on 01/30/2026 at 12:54:24.
BEGIN options
  BUDGET  FILEOUT  gwf_triangle.bud
  BUDGETCSV  FILEOUT  gwf_triangle.bud.csv
  HEAD  FILEOUT  gwf_triangle.hds
END options

BEGIN period  1
  SAVE  HEAD  ALL
  SAVE  BUDGET  ALL
END period  1

