# File generated by Flopy version 3.8.0 on 05/07/2026 at 20:45:56.
BEGIN options
END options

BEGIN dimensions
  NLAY  1
  NROW  10
  NCOL  10
END dimensions

BEGIN griddata
  delr
    CONSTANT     100.00000000
  delc
    CONSTANT     100.00000000
  top
    CONSTANT     100.00000000
  botm
    CONSTANT       0.00000000
END griddata

