# File generated by Flopy version 3.10.0.dev5 on 01/30/2026 at 12:55:25.
BEGIN options
END options

BEGIN timing
  TDIS6  ex-gwf-u1disv-x.tdis
END timing

BEGIN models
  gwf6  ex-gwf-u1disv-x.nam  ex-gwf-u1disv-x
END models

BEGIN exchanges
END exchanges

BEGIN solutiongroup  1
  ims6  ex-gwf-u1disv-x.ims  ex-gwf-u1disv-x
END solutiongroup  1

