# File generated by Flopy version 3.10.0.dev5 on 01/30/2026 at 12:53:34.
BEGIN options
  BUDGET  FILEOUT  gwe-ates.cbc
  TEMPERATURE  FILEOUT  gwe-ates.ucn
  TEMPERATURE  PRINT_FORMAT  COLUMNS  10  WIDTH  15  DIGITS  6  GENERAL
END options

BEGIN period  1
  SAVE  TEMPERATURE  ALL
  SAVE  BUDGET  ALL
  PRINT  TEMPERATURE  ALL
  PRINT  BUDGET  ALL
END period  1

