# File generated by Flopy version 3.10.0.dev5 on 01/30/2026 at 12:53:33.
BEGIN options
  SAVE_SPECIFIC_DISCHARGE
  SAVE_SATURATION
END options

BEGIN griddata
  icelltype
    CONSTANT  0
  k
    INTERNAL  FACTOR  1.0
         8.64000000       8.64000000  8.64000000E-04  8.64000000E-04       8.64000000  8.64000000E-04  8.64000000E-04  8.64000000E-04  8.64000000E-04       8.64000000  8.64000000E-04       8.64000000       8.64000000  8.64000000E-04  8.64000000E-04       8.64000000       8.64000000  8.64000000E-04       8.64000000  8.64000000E-04
         8.64000000       8.64000000  8.64000000E-04  8.64000000E-04  8.64000000E-04       8.64000000  8.64000000E-04  8.64000000E-04       8.64000000  8.64000000E-04  8.64000000E-04  8.64000000E-04  8.64000000E-04  8.64000000E-04  8.64000000E-04  8.64000000E-04  8.64000000E-04       8.64000000       8.64000000  8.64000000E-04
    8.64000000E-04       8.64000000  8.64000000E-04  8.64000000E-04       8.64000000       8.64000000  8.64000000E-04  8.64000000E-04  8.64000000E-04  8.64000000E-04  8.64000000E-04  8.64000000E-04       8.64000000  8.64000000E-04       8.64000000  8.64000000E-04       8.64000000  8.64000000E-04  8.64000000E-04  8.64000000E-04
    8.64000000E-04  8.64000000E-04  8.64000000E-04  8.64000000E-04  8.64000000E-04  8.64000000E-04  8.64000000E-04  8.64000000E-04  8.64000000E-04  8.64000000E-04  8.64000000E-04       8.64000000  8.64000000E-04  8.64000000E-04  8.64000000E-04  8.64000000E-04  8.64000000E-04  8.64000000E-04  8.64000000E-04  8.64000000E-04
    8.64000000E-04       8.64000000       8.64000000  8.64000000E-04  8.64000000E-04  8.64000000E-04  8.64000000E-04  8.64000000E-04  8.64000000E-04  8.64000000E-04  8.64000000E-04  8.64000000E-04  8.64000000E-04  8.64000000E-04       8.64000000       8.64000000  8.64000000E-04  8.64000000E-04  8.64000000E-04  8.64000000E-04
    8.64000000E-04  8.64000000E-04  8.64000000E-04  8.64000000E-04  8.64000000E-04       8.64000000       8.64000000       8.64000000  8.64000000E-04       8.64000000       8.64000000       8.64000000       8.64000000       8.64000000       8.64000000       8.64000000       8.64000000       8.64000000       8.64000000       8.64000000
    8.64000000E-04       8.64000000       8.64000000       8.64000000       8.64000000       8.64000000       8.64000000       8.64000000       8.64000000       8.64000000       8.64000000       8.64000000  8.64000000E-04       8.64000000       8.64000000       8.64000000       8.64000000       8.64000000       8.64000000       8.64000000
         8.64000000       8.64000000       8.64000000       8.64000000       8.64000000       8.64000000       8.64000000       8.64000000       8.64000000       8.64000000       8.64000000       8.64000000       8.64000000       8.64000000       8.64000000       8.64000000       8.64000000       8.64000000       8.64000000       8.64000000
         8.64000000       8.64000000       8.64000000       8.64000000       8.64000000       8.64000000       8.64000000       8.64000000       8.64000000       8.64000000       8.64000000       8.64000000       8.64000000       8.64000000       8.64000000       8.64000000       8.64000000       8.64000000       8.64000000       8.64000000
         8.64000000       8.64000000       8.64000000       8.64000000       8.64000000       8.64000000       8.64000000       8.64000000       8.64000000       8.64000000       8.64000000       8.64000000       8.64000000       8.64000000       8.64000000       8.64000000       8.64000000       8.64000000       8.64000000       8.64000000
         8.64000000       8.64000000       8.64000000       8.64000000       8.64000000       8.64000000       8.64000000       8.64000000       8.64000000       8.64000000       8.64000000       8.64000000       8.64000000       8.64000000       8.64000000       8.64000000       8.64000000       8.64000000       8.64000000       8.64000000
         8.64000000       8.64000000       8.64000000       8.64000000       8.64000000       8.64000000       8.64000000       8.64000000       8.64000000       8.64000000       8.64000000       8.64000000       8.64000000       8.64000000       8.64000000       8.64000000       8.64000000       8.64000000       8.64000000       8.64000000
         8.64000000       8.64000000       8.64000000       8.64000000       8.64000000       8.64000000       8.64000000  8.64000000E-04       8.64000000       8.64000000       8.64000000       8.64000000       8.64000000       8.64000000       8.64000000       8.64000000       8.64000000       8.64000000       8.64000000       8.64000000
         8.64000000       8.64000000       8.64000000       8.64000000       8.64000000       8.64000000       8.64000000       8.64000000       8.64000000       8.64000000       8.64000000       8.64000000       8.64000000       8.64000000       8.64000000       8.64000000       8.64000000       8.64000000       8.64000000       8.64000000
         8.64000000       8.64000000       8.64000000       8.64000000       8.64000000       8.64000000       8.64000000       8.64000000       8.64000000       8.64000000       8.64000000       8.64000000       8.64000000       8.64000000       8.64000000       8.64000000       8.64000000       8.64000000       8.64000000       8.64000000
         8.64000000       8.64000000       8.64000000       8.64000000       8.64000000       8.64000000       8.64000000       8.64000000       8.64000000       8.64000000       8.64000000       8.64000000       8.64000000       8.64000000       8.64000000       8.64000000       8.64000000       8.64000000       8.64000000       8.64000000
         8.64000000       8.64000000       8.64000000       8.64000000       8.64000000       8.64000000       8.64000000       8.64000000       8.64000000       8.64000000       8.64000000       8.64000000       8.64000000       8.64000000       8.64000000       8.64000000       8.64000000       8.64000000       8.64000000       8.64000000
         8.64000000       8.64000000       8.64000000       8.64000000       8.64000000       8.64000000       8.64000000       8.64000000       8.64000000       8.64000000       8.64000000       8.64000000       8.64000000       8.64000000       8.64000000       8.64000000       8.64000000       8.64000000       8.64000000       8.64000000
         8.64000000       8.64000000       8.64000000       8.64000000       8.64000000       8.64000000       8.64000000       8.64000000       8.64000000       8.64000000       8.64000000       8.64000000       8.64000000       8.64000000       8.64000000       8.64000000  8.64000000E-04       8.64000000       8.64000000       8.64000000
         8.64000000       8.64000000       8.64000000       8.64000000       8.64000000       8.64000000       8.64000000       8.64000000       8.64000000       8.64000000       8.64000000       8.64000000       8.64000000       8.64000000       8.64000000       8.64000000       8.64000000       8.64000000       8.64000000       8.64000000
         8.64000000       8.64000000       8.64000000       8.64000000       8.64000000       8.64000000  8.64000000E-04       8.64000000       8.64000000       8.64000000       8.64000000       8.64000000       8.64000000       8.64000000       8.64000000       8.64000000       8.64000000       8.64000000       8.64000000       8.64000000
         8.64000000       8.64000000       8.64000000       8.64000000       8.64000000  8.64000000E-04       8.64000000       8.64000000       8.64000000       8.64000000       8.64000000       8.64000000       8.64000000       8.64000000       8.64000000       8.64000000       8.64000000       8.64000000       8.64000000       8.64000000
         8.64000000       8.64000000       8.64000000       8.64000000       8.64000000  8.64000000E-04       8.64000000       8.64000000       8.64000000       8.64000000       8.64000000       8.64000000       8.64000000       8.64000000       8.64000000       8.64000000       8.64000000       8.64000000       8.64000000       8.64000000
         8.64000000       8.64000000       8.64000000       8.64000000       8.64000000       8.64000000       8.64000000       8.64000000       8.64000000       8.64000000       8.64000000       8.64000000       8.64000000       8.64000000       8.64000000       8.64000000       8.64000000       8.64000000       8.64000000       8.64000000
         8.64000000       8.64000000       8.64000000       8.64000000       8.64000000       8.64000000       8.64000000       8.64000000       8.64000000       8.64000000       8.64000000       8.64000000       8.64000000       8.64000000       8.64000000       8.64000000       8.64000000       8.64000000       8.64000000       8.64000000
         8.64000000       8.64000000       8.64000000       8.64000000       8.64000000       8.64000000       8.64000000  8.64000000E-04       8.64000000       8.64000000       8.64000000       8.64000000       8.64000000       8.64000000  8.64000000E-04       8.64000000       8.64000000       8.64000000       8.64000000       8.64000000
         8.64000000       8.64000000       8.64000000  8.64000000E-04       8.64000000       8.64000000       8.64000000       8.64000000       8.64000000       8.64000000       8.64000000       8.64000000       8.64000000       8.64000000       8.64000000       8.64000000       8.64000000       8.64000000       8.64000000       8.64000000
         8.64000000       8.64000000       8.64000000       8.64000000       8.64000000       8.64000000       8.64000000       8.64000000       8.64000000       8.64000000       8.64000000       8.64000000       8.64000000  8.64000000E-04       8.64000000  8.64000000E-04       8.64000000       8.64000000       8.64000000       8.64000000
         8.64000000       8.64000000       8.64000000       8.64000000       8.64000000       8.64000000       8.64000000       8.64000000       8.64000000  8.64000000E-04       8.64000000       8.64000000       8.64000000       8.64000000       8.64000000       8.64000000       8.64000000       8.64000000       8.64000000       8.64000000
         8.64000000       8.64000000       8.64000000       8.64000000       8.64000000       8.64000000       8.64000000       8.64000000       8.64000000       8.64000000       8.64000000  8.64000000E-04  8.64000000E-04  8.64000000E-04  8.64000000E-04  8.64000000E-04       8.64000000       8.64000000       8.64000000       8.64000000
         8.64000000       8.64000000       8.64000000       8.64000000  8.64000000E-04  8.64000000E-04       8.64000000       8.64000000       8.64000000       8.64000000       8.64000000       8.64000000       8.64000000  8.64000000E-04       8.64000000       8.64000000       8.64000000       8.64000000       8.64000000       8.64000000
         8.64000000       8.64000000       8.64000000       8.64000000       8.64000000       8.64000000       8.64000000       8.64000000       8.64000000       8.64000000  8.64000000E-04  8.64000000E-04       8.64000000       8.64000000  8.64000000E-04  8.64000000E-04       8.64000000       8.64000000       8.64000000       8.64000000
         8.64000000       8.64000000       8.64000000       8.64000000       8.64000000       8.64000000       8.64000000       8.64000000       8.64000000       8.64000000       8.64000000       8.64000000       8.64000000       8.64000000       8.64000000       8.64000000       8.64000000       8.64000000       8.64000000  8.64000000E-04
         8.64000000       8.64000000       8.64000000       8.64000000       8.64000000       8.64000000       8.64000000       8.64000000       8.64000000       8.64000000  8.64000000E-04  8.64000000E-04  8.64000000E-04  8.64000000E-04       8.64000000       8.64000000       8.64000000       8.64000000       8.64000000       8.64000000
         8.64000000       8.64000000       8.64000000       8.64000000       8.64000000       8.64000000       8.64000000       8.64000000       8.64000000       8.64000000       8.64000000       8.64000000       8.64000000       8.64000000       8.64000000       8.64000000       8.64000000       8.64000000       8.64000000       8.64000000
         8.64000000       8.64000000       8.64000000       8.64000000       8.64000000       8.64000000       8.64000000       8.64000000       8.64000000       8.64000000       8.64000000       8.64000000       8.64000000       8.64000000       8.64000000       8.64000000       8.64000000       8.64000000       8.64000000       8.64000000
         8.64000000       8.64000000       8.64000000       8.64000000       8.64000000       8.64000000       8.64000000       8.64000000       8.64000000       8.64000000       8.64000000       8.64000000       8.64000000  8.64000000E-04       8.64000000       8.64000000       8.64000000       8.64000000       8.64000000       8.64000000
         8.64000000       8.64000000       8.64000000       8.64000000       8.64000000       8.64000000       8.64000000       8.64000000  8.64000000E-04       8.64000000       8.64000000       8.64000000       8.64000000       8.64000000       8.64000000       8.64000000       8.64000000       8.64000000       8.64000000       8.64000000
         8.64000000       8.64000000       8.64000000       8.64000000       8.64000000       8.64000000       8.64000000       8.64000000       8.64000000       8.64000000       8.64000000       8.64000000       8.64000000       8.64000000       8.64000000       8.64000000       8.64000000       8.64000000       8.64000000       8.64000000
         8.64000000       8.64000000       8.64000000       8.64000000       8.64000000       8.64000000       8.64000000       8.64000000       8.64000000       8.64000000       8.64000000       8.64000000       8.64000000       8.64000000       8.64000000       8.64000000  8.64000000E-04       8.64000000       8.64000000       8.64000000
         8.64000000       8.64000000       8.64000000  8.64000000E-04       8.64000000       8.64000000       8.64000000       8.64000000       8.64000000  8.64000000E-04       8.64000000       8.64000000       8.64000000       8.64000000       8.64000000       8.64000000       8.64000000       8.64000000       8.64000000       8.64000000
         8.64000000       8.64000000       8.64000000       8.64000000       8.64000000       8.64000000       8.64000000       8.64000000       8.64000000       8.64000000       8.64000000       8.64000000       8.64000000       8.64000000       8.64000000       8.64000000       8.64000000       8.64000000       8.64000000       8.64000000
         8.64000000       8.64000000       8.64000000       8.64000000       8.64000000       8.64000000       8.64000000       8.64000000       8.64000000       8.64000000       8.64000000       8.64000000       8.64000000       8.64000000       8.64000000       8.64000000       8.64000000       8.64000000       8.64000000       8.64000000
         8.64000000       8.64000000       8.64000000       8.64000000       8.64000000       8.64000000       8.64000000       8.64000000       8.64000000       8.64000000       8.64000000       8.64000000       8.64000000  8.64000000E-04       8.64000000       8.64000000       8.64000000  8.64000000E-04       8.64000000       8.64000000
         8.64000000       8.64000000       8.64000000       8.64000000       8.64000000       8.64000000       8.64000000       8.64000000       8.64000000       8.64000000       8.64000000       8.64000000       8.64000000       8.64000000       8.64000000       8.64000000       8.64000000       8.64000000       8.64000000  8.64000000E-04
    8.64000000E-04  8.64000000E-04  8.64000000E-04  8.64000000E-04       8.64000000       8.64000000       8.64000000       8.64000000       8.64000000       8.64000000       8.64000000       8.64000000       8.64000000       8.64000000       8.64000000       8.64000000       8.64000000       8.64000000       8.64000000       8.64000000
         8.64000000  8.64000000E-04       8.64000000       8.64000000  8.64000000E-04  8.64000000E-04       8.64000000       8.64000000       8.64000000       8.64000000       8.64000000       8.64000000       8.64000000       8.64000000  8.64000000E-04       8.64000000       8.64000000       8.64000000       8.64000000       8.64000000
         8.64000000       8.64000000  8.64000000E-04       8.64000000       8.64000000       8.64000000       8.64000000       8.64000000       8.64000000       8.64000000       8.64000000       8.64000000       8.64000000       8.64000000       8.64000000       8.64000000       8.64000000       8.64000000       8.64000000       8.64000000
         8.64000000       8.64000000       8.64000000       8.64000000       8.64000000       8.64000000       8.64000000       8.64000000       8.64000000       8.64000000       8.64000000       8.64000000       8.64000000       8.64000000       8.64000000       8.64000000       8.64000000       8.64000000       8.64000000       8.64000000
         8.64000000       8.64000000       8.64000000       8.64000000       8.64000000       8.64000000       8.64000000       8.64000000       8.64000000       8.64000000       8.64000000       8.64000000       8.64000000       8.64000000       8.64000000       8.64000000       8.64000000       8.64000000       8.64000000       8.64000000
    8.64000000E-04       8.64000000       8.64000000       8.64000000       8.64000000       8.64000000       8.64000000       8.64000000       8.64000000       8.64000000       8.64000000       8.64000000       8.64000000       8.64000000       8.64000000       8.64000000       8.64000000       8.64000000       8.64000000       8.64000000
         8.64000000       8.64000000       8.64000000       8.64000000       8.64000000       8.64000000       8.64000000       8.64000000       8.64000000       8.64000000       8.64000000       8.64000000       8.64000000       8.64000000       8.64000000  8.64000000E-04       8.64000000       8.64000000  8.64000000E-04       8.64000000
         8.64000000       8.64000000       8.64000000  8.64000000E-04       8.64000000       8.64000000       8.64000000  8.64000000E-04  8.64000000E-04  8.64000000E-04  8.64000000E-04  8.64000000E-04       8.64000000  8.64000000E-04       8.64000000       8.64000000       8.64000000       8.64000000       8.64000000  8.64000000E-04
         8.64000000       8.64000000       8.64000000       8.64000000       8.64000000       8.64000000       8.64000000       8.64000000       8.64000000       8.64000000       8.64000000       8.64000000       8.64000000       8.64000000       8.64000000  8.64000000E-04       8.64000000       8.64000000       8.64000000       8.64000000
         8.64000000       8.64000000       8.64000000       8.64000000       8.64000000       8.64000000       8.64000000       8.64000000       8.64000000       8.64000000       8.64000000       8.64000000       8.64000000       8.64000000  8.64000000E-04  8.64000000E-04       8.64000000       8.64000000       8.64000000       8.64000000
         8.64000000  8.64000000E-04       8.64000000       8.64000000       8.64000000       8.64000000       8.64000000       8.64000000       8.64000000       8.64000000       8.64000000       8.64000000       8.64000000       8.64000000       8.64000000       8.64000000       8.64000000       8.64000000       8.64000000       8.64000000
         8.64000000       8.64000000       8.64000000       8.64000000       8.64000000       8.64000000       8.64000000       8.64000000       8.64000000       8.64000000       8.64000000       8.64000000       8.64000000       8.64000000       8.64000000       8.64000000       8.64000000       8.64000000       8.64000000       8.64000000
         8.64000000       8.64000000       8.64000000       8.64000000       8.64000000       8.64000000       8.64000000       8.64000000  8.64000000E-04       8.64000000       8.64000000       8.64000000       8.64000000       8.64000000       8.64000000       8.64000000       8.64000000       8.64000000       8.64000000       8.64000000
         8.64000000  8.64000000E-04       8.64000000       8.64000000       8.64000000       8.64000000       8.64000000       8.64000000       8.64000000  8.64000000E-04  8.64000000E-04  8.64000000E-04  8.64000000E-04  8.64000000E-04       8.64000000       8.64000000       8.64000000  8.64000000E-04  8.64000000E-04  8.64000000E-04
    8.64000000E-04  8.64000000E-04  8.64000000E-04  8.64000000E-04       8.64000000       8.64000000       8.64000000       8.64000000       8.64000000       8.64000000       8.64000000       8.64000000       8.64000000       8.64000000       8.64000000       8.64000000       8.64000000       8.64000000       8.64000000       8.64000000
         8.64000000       8.64000000       8.64000000       8.64000000       8.64000000       8.64000000       8.64000000       8.64000000       8.64000000       8.64000000       8.64000000       8.64000000       8.64000000       8.64000000       8.64000000       8.64000000       8.64000000       8.64000000       8.64000000  8.64000000E-04
    8.64000000E-04  8.64000000E-04  8.64000000E-04  8.64000000E-04       8.64000000       8.64000000  8.64000000E-04  8.64000000E-04       8.64000000       8.64000000  8.64000000E-04  8.64000000E-04       8.64000000       8.64000000       8.64000000       8.64000000       8.64000000       8.64000000       8.64000000       8.64000000
         8.64000000       8.64000000       8.64000000       8.64000000       8.64000000       8.64000000       8.64000000       8.64000000       8.64000000       8.64000000  8.64000000E-04  8.64000000E-04       8.64000000       8.64000000       8.64000000       8.64000000       8.64000000       8.64000000       8.64000000       8.64000000
         8.64000000       8.64000000       8.64000000       8.64000000  8.64000000E-04  8.64000000E-04       8.64000000       8.64000000  8.64000000E-04  8.64000000E-04  8.64000000E-04  8.64000000E-04       8.64000000       8.64000000       8.64000000       8.64000000       8.64000000       8.64000000       8.64000000       8.64000000
         8.64000000       8.64000000       8.64000000       8.64000000       8.64000000       8.64000000       8.64000000  8.64000000E-04       8.64000000       8.64000000       8.64000000       8.64000000       8.64000000  8.64000000E-04       8.64000000       8.64000000       8.64000000  8.64000000E-04       8.64000000       8.64000000
         8.64000000       8.64000000       8.64000000       8.64000000       8.64000000       8.64000000       8.64000000       8.64000000       8.64000000       8.64000000       8.64000000       8.64000000       8.64000000       8.64000000       8.64000000       8.64000000       8.64000000       8.64000000       8.64000000       8.64000000
         8.64000000       8.64000000       8.64000000       8.64000000       8.64000000       8.64000000       8.64000000       8.64000000       8.64000000       8.64000000       8.64000000       8.64000000       8.64000000       8.64000000       8.64000000       8.64000000       8.64000000  8.64000000E-04  8.64000000E-04  8.64000000E-04
         8.64000000       8.64000000       8.64000000       8.64000000       8.64000000       8.64000000       8.64000000       8.64000000       8.64000000       8.64000000       8.64000000       8.64000000  8.64000000E-04  8.64000000E-04       8.64000000       8.64000000       8.64000000       8.64000000       8.64000000       8.64000000
         8.64000000       8.64000000       8.64000000       8.64000000       8.64000000       8.64000000       8.64000000  8.64000000E-04  8.64000000E-04       8.64000000       8.64000000       8.64000000       8.64000000       8.64000000       8.64000000       8.64000000  8.64000000E-04  8.64000000E-04       8.64000000       8.64000000
         8.64000000       8.64000000       8.64000000       8.64000000       8.64000000       8.64000000       8.64000000       8.64000000       8.64000000       8.64000000       8.64000000       8.64000000       8.64000000       8.64000000       8.64000000       8.64000000       8.64000000       8.64000000  8.64000000E-04       8.64000000
         8.64000000  8.64000000E-04  8.64000000E-04  8.64000000E-04       8.64000000  8.64000000E-04       8.64000000       8.64000000       8.64000000       8.64000000       8.64000000  8.64000000E-04       8.64000000       8.64000000       8.64000000       8.64000000       8.64000000       8.64000000       8.64000000       8.64000000
         8.64000000       8.64000000       8.64000000       8.64000000       8.64000000       8.64000000       8.64000000       8.64000000       8.64000000       8.64000000       8.64000000       8.64000000       8.64000000       8.64000000       8.64000000       8.64000000       8.64000000       8.64000000       8.64000000  8.64000000E-04
    8.64000000E-04       8.64000000       8.64000000       8.64000000       8.64000000       8.64000000       8.64000000       8.64000000       8.64000000       8.64000000       8.64000000       8.64000000       8.64000000       8.64000000       8.64000000       8.64000000       8.64000000       8.64000000       8.64000000       8.64000000
         8.64000000       8.64000000       8.64000000       8.64000000       8.64000000       8.64000000       8.64000000       8.64000000       8.64000000       8.64000000       8.64000000       8.64000000       8.64000000       8.64000000       8.64000000       8.64000000       8.64000000       8.64000000       8.64000000       8.64000000
         8.64000000       8.64000000       8.64000000       8.64000000       8.64000000       8.64000000       8.64000000       8.64000000       8.64000000       8.64000000       8.64000000       8.64000000       8.64000000       8.64000000       8.64000000       8.64000000       8.64000000       8.64000000       8.64000000       8.64000000
         8.64000000       8.64000000       8.64000000       8.64000000       8.64000000       8.64000000       8.64000000       8.64000000       8.64000000       8.64000000       8.64000000       8.64000000       8.64000000       8.64000000       8.64000000       8.64000000       8.64000000       8.64000000       8.64000000       8.64000000
         8.64000000       8.64000000       8.64000000       8.64000000       8.64000000       8.64000000       8.64000000       8.64000000       8.64000000       8.64000000       8.64000000       8.64000000       8.64000000       8.64000000       8.64000000  8.64000000E-04       8.64000000       8.64000000       8.64000000       8.64000000
         8.64000000       8.64000000       8.64000000       8.64000000       8.64000000       8.64000000       8.64000000       8.64000000       8.64000000       8.64000000       8.64000000       8.64000000       8.64000000       8.64000000       8.64000000       8.64000000       8.64000000  8.64000000E-04  8.64000000E-04       8.64000000
         8.64000000       8.64000000       8.64000000       8.64000000       8.64000000       8.64000000       8.64000000       8.64000000       8.64000000       8.64000000       8.64000000       8.64000000       8.64000000       8.64000000       8.64000000       8.64000000       8.64000000       8.64000000       8.64000000       8.64000000
         8.64000000       8.64000000       8.64000000       8.64000000       8.64000000       8.64000000       8.64000000       8.64000000       8.64000000       8.64000000       8.64000000       8.64000000       8.64000000       8.64000000       8.64000000       8.64000000       8.64000000       8.64000000       8.64000000       8.64000000
         8.64000000       8.64000000       8.64000000       8.64000000       8.64000000       8.64000000       8.64000000       8.64000000       8.64000000       8.64000000       8.64000000       8.64000000       8.64000000       8.64000000       8.64000000       8.64000000       8.64000000       8.64000000       8.64000000       8.64000000
         8.64000000       8.64000000       8.64000000       8.64000000       8.64000000       8.64000000       8.64000000       8.64000000       8.64000000       8.64000000       8.64000000       8.64000000       8.64000000       8.64000000       8.64000000       8.64000000       8.64000000       8.64000000       8.64000000       8.64000000
         8.64000000       8.64000000       8.64000000       8.64000000       8.64000000       8.64000000       8.64000000       8.64000000       8.64000000       8.64000000       8.64000000       8.64000000       8.64000000       8.64000000  8.64000000E-04       8.64000000       8.64000000       8.64000000       8.64000000       8.64000000
         8.64000000       8.64000000       8.64000000       8.64000000       8.64000000       8.64000000       8.64000000       8.64000000       8.64000000       8.64000000       8.64000000       8.64000000       8.64000000       8.64000000       8.64000000       8.64000000       8.64000000       8.64000000       8.64000000  8.64000000E-04
         8.64000000       8.64000000       8.64000000       8.64000000       8.64000000       8.64000000       8.64000000       8.64000000       8.64000000       8.64000000       8.64000000       8.64000000       8.64000000       8.64000000       8.64000000       8.64000000       8.64000000       8.64000000       8.64000000       8.64000000
         8.64000000       8.64000000       8.64000000       8.64000000       8.64000000       8.64000000       8.64000000       8.64000000       8.64000000       8.64000000       8.64000000  8.64000000E-04       8.64000000       8.64000000       8.64000000       8.64000000       8.64000000       8.64000000       8.64000000       8.64000000
         8.64000000       8.64000000       8.64000000       8.64000000       8.64000000       8.64000000       8.64000000       8.64000000       8.64000000       8.64000000       8.64000000       8.64000000       8.64000000       8.64000000       8.64000000       8.64000000       8.64000000       8.64000000       8.64000000       8.64000000