# File generated by Flopy version 3.10.0.dev5 on 01/30/2026 at 12:53:34.
BEGIN options
  BUDGET  FILEOUT  gwf-ates.cbc
  HEAD  FILEOUT  gwf-ates.hds
END options

BEGIN period  1
  SAVE  HEAD  All
  SAVE  BUDGET  ALL
  PRINT  HEAD  ALL
  PRINT  BUDGET  ALL
END period  1

