# File generated by Flopy version 3.8.0 on 05/07/2026 at 20:45:59.
BEGIN options
  SAVE_FLOWS
END options

BEGIN griddata
  icelltype
    CONSTANT  0
  k
    INTERNAL  FACTOR  1.0
         3.38426891       1.30432248       2.90508943       7.22406534       2.74402946       9.27943707       6.02177505       6.60817362       3.58120664       6.96666103
         4.91569552       7.23515654       6.77483833       1.62336621       7.76499402       7.86133594       3.92236011       6.46533908       7.35337949       5.40563257
         2.17057161       5.09144536       9.32800135       2.27385006       7.05815087       2.67089955       7.75336220       1.67368555       2.82617567       4.06409097
         2.48091294       8.17123426       5.42443822       3.85663734       8.77575178       1.17642580       8.06689988       9.22316117       2.39593589       4.83508930
         9.75029617       8.02721618       1.80450081       2.74246209       9.37935559       5.50757870       7.07142729       6.78231368       7.03020554       8.96321856
         4.56629350       3.11742068       2.88522701       4.38962799       8.28132031       4.47374527       7.62334375       2.30840865       9.91055890       5.40457544
         2.60750506       8.30898497       1.60998122       9.46855561       5.29379799       6.64804984       4.84654755       4.14419043       4.45097373       3.31165840
         7.96017913       5.24675697       1.85006181       7.76738720       6.31992300       5.34506910       5.00314018       1.26710404       8.76747438       5.39519094
         6.14507485       5.30008096       7.67813933       8.14566010       4.39393770       7.61936017       6.00501545       6.95816858       7.52347708       5.93049110
         9.56348447       1.41827999       7.39786019       9.87217262       3.42543925       7.74436349       8.21152968       2.87370937       8.35957503       6.59779216
END griddata

