# File generated by Flopy version 3.10.0.dev5 on 01/30/2026 at 12:53:35.
BEGIN options
END options

BEGIN timing
  TDIS6  ex-gwe-barends.tdis
END timing

BEGIN models
  gwf6  gwf-barends.nam  gwf-barends
END models

BEGIN exchanges
END exchanges

BEGIN solutiongroup  1
  ims6  ex-gwe-barends.ims  gwf-barends
END solutiongroup  1

