# File generated by Flopy version 3.10.0.dev5 on 01/30/2026 at 12:54:40.
BEGIN options
END options

BEGIN dimensions
  MAXBOUND  2
END dimensions

BEGIN period  1
  1 1 1 6.00000000E+01
  1 1 101 0.00000000E+00
END period  1

