# File generated by Flopy version 3.8.0 on 05/07/2026 at 20:45:52.
BEGIN options
  SAVE_FLOWS
END options

BEGIN griddata
  icelltype
    CONSTANT  0
  k
    INTERNAL  FACTOR  1.0
         9.62576091       6.04186764       5.41819529       3.35799035       6.32209754       6.04156506       9.45736319       7.31424445       1.00992438       4.43006500
         6.70562225       5.29018495       7.53217571       7.02839343       3.02838857       9.36991819       9.44280521       7.96127690       6.58202565       6.75804727
         1.91271685       2.64830654       6.74807778       6.89293214       7.42467366       9.13093102       9.02842989       5.07215367       4.83171702       5.07437853
         8.41143999       7.61858594       9.20386558       8.24689345       2.38355919       6.11651480       2.87685663       4.54520753       8.70437172       7.79783937
         1.86621261       1.60627144       1.30076003       1.33775678       7.94176414       4.90341025       8.96249890       6.15508030       1.24216428       5.79849771
         1.25875154       3.87834231       2.63100175       4.12101756       9.66005273       9.72243602       7.08784953       9.70194489       8.24089995       5.70038639
         6.52254164       6.16555493       9.57267830       4.40193282       4.47120950       9.46495844       6.31891220       1.64353257       1.19406700       1.03381221
         5.74279182       4.74272360       3.05526505       2.40052008       4.56362757       6.66402536       1.91495660       6.02901807       8.17860980       5.07622488
         7.34308441       3.05435159       3.63200414       4.21924350       5.74099162       7.57470505       9.28169847       5.71901651       3.30403693       1.01548762
         7.58803911       2.93143787       5.37424457       4.92285305       7.23194481       8.19595696       7.43943853       8.34925737       9.19460727       4.06523557
END griddata

