# File generated by Flopy version 3.10.0.dev5 on 01/30/2026 at 12:54:54.
BEGIN options
  DIGITS  7
  PRINT_INPUT
END options

BEGIN continuous  FILEOUT  trans.lkt.obs.csv
  lkt1conc  CONCENTRATION  1
  lkt2conc  CONCENTRATION  2
  lkt1frommvr  FROM-MVR  1
  lkt2frommvr  FROM-MVR  2
  lkt1tomvr  TO-MVR  1
  lkt1bntomvr  TO-MVR  mylake1
END continuous  FILEOUT  trans.lkt.obs.csv

