# File generated by Flopy version 3.10.0.dev5 on 01/30/2026 at 12:53:52.
BEGIN options
END options

BEGIN timing
  TDIS6  ex-gwf-lgrv-gr.tdis
END timing

BEGIN models
  gwf6  parent.nam  parent
END models

BEGIN exchanges
END exchanges

BEGIN solutiongroup  1
  ims6  ex-gwf-lgrv-gr.ims  parent
END solutiongroup  1

