# File generated by Flopy version 3.10.0 on 05/09/2026 at 09:47:46.
BEGIN options
  SAVE_FLOWS
END options

BEGIN packages
  DIS6  sim_model_0629.dis  dis
  STO6  sim_model_0629.sto  sto
  NPF6  sim_model_0629.npf  npf
  IC6  sim_model_0629.ic  ic
  CHD6  sim_model_0629.chd  chd_0
  OC6  sim_model_0629.oc  oc
END packages

