# File generated by Flopy version 3.10.0.dev5 on 01/30/2026 at 12:54:24.
BEGIN options
END options

BEGIN dimensions
  MAXBOUND  196
END dimensions

BEGIN period  1
  1 1 6.45874313E-01
  1 2 0.00000000E+00
  1 3 -7.07106781E-01
  1 4 0.00000000E+00
  1 6 3.92209512E-01
  1 7 5.96019853E-01
  1 8 -4.21661408E-01
  1 9 -4.67061422E-01
  1 14 4.04676798E-01
  1 15 -5.82461718E-01
  1 19 -4.62080559E-01
  1 22 -4.25433273E-01
  1 25 -4.09148057E-01
  1 27 -3.69617845E-01
  1 29 -3.95615940E-01
  1 31 -4.04426129E-01
  1 32 -4.36190967E-01
  1 37 -3.74099975E-01
  1 54 -4.55005288E-01
  1 60 -3.96100630E-01
  1 78 -4.50342550E-01
  1 80 -5.66805799E-01
  1 104 -5.13019621E-01
  1 142 -3.57978148E-01
  1 164 -2.83367514E-01
  1 174 -5.51820669E-01
  1 203 -2.86754528E-01
  1 205 -3.68909649E-01
  1 206 -4.55737679E-01
  1 254 -3.53102687E-01
  1 267 -4.19642076E-01
  1 270 -3.98651394E-01
  1 272 -5.03011560E-01
  1 300 -3.40816724E-01
  1 302 -4.64533464E-01
  1 303 -2.76327212E-01
  1 304 -4.00918418E-01
  1 310 -3.85127582E-01
  1 341 -2.83966045E-01
  1 342 -3.72551631E-01
  1 345 -3.89133855E-01
  1 348 -4.29576642E-01
  1 401 -3.63732926E-01
  1 449 -5.26566470E-01
  1 473 -4.15981248E-01
  1 587 -2.72591998E-01
  1 613 -3.23901670E-01
  1 731 -4.99015316E-01
  1 750 -4.40401228E-01
  1 754 -4.73424557E-01
  1 765 -4.26164303E-01
  1 769 -3.08913903E-01
  1 781 -3.15082176E-01
  1 784 -3.99166151E-01
  1 794 -3.89378217E-01
  1 805 -3.89379464E-01
  1 864 -3.30913215E-01
  1 870 -2.81008385E-01
  1 872 -3.37932906E-01
  1 873 -4.48096162E-01
  1 880 -4.64617817E-01
  1 882 -3.10910395E-01
  1 915 -2.82755068E-01
  1 916 -2.89755562E-01
  1 920 -3.62560800E-01
  1 924 -3.52008884E-01
  1 929 -3.16505518E-01
  1 966 4.38277563E-01
  1 1131 4.15097095E-01
  1 1204 4.55253906E-01
  1 1211 -2.77671337E-01
  1 1217 3.54680984E-01
  1 1249 5.35211225E-01
  1 1258 3.79030917E-01
  1 1280 4.45274747E-01
  1 1281 4.87812796E-01
  1 1283 3.86128252E-01
  1 1288 3.45266205E-01
  1 1289 4.35101593E-01
  1 1352 3.60057352E-01
  1 1355 -3.47450505E-01
  1 1362 -4.29516200E-01
  1 1363 -3.89729583E-01
  1 1384 3.90641605E-01
  1 1387 3.38208155E-01
  1 1389 4.34586459E-01
  1 1390 3.32219182E-01
  1 1396 -2.81381375E-01
  1 1397 -3.92030722E-01
  1 1505 4.84994269E-01
  1 1543 4.04482783E-01
  1 1618 3.74690292E-01
  1 1636 4.33657990E-01
  1 1657 3.46905330E-01
  1 1672 3.06671410E-01
  1 1690 4.81130176E-01
  1 1716 4.10455950E-01
  1 1717 2.80267118E-01
  1 1721 4.03716764E-01
  1 1722 4.57348046E-01
  1 1772 4.31911898E-01
  1 1773 3.57345477E-01
  1 1780 3.89382464E-01
  1 1781 3.89440641E-01
  1 1786 4.42158458E-01
  1 1787 3.81924907E-01
  1 1793 4.42471720E-01
  1 1803 3.82218655E-01
  1 1806 3.89379614E-01
  1 1810 4.42486868E-01
  1 1812 -3.88861157E-01
  1 1816 3.82232835E-01
  1 1819 -2.86792333E-01
  1 1823 4.65179752E-01
  1 1828 3.82233530E-01
  1 1830 -4.39313355E-01
  1 1873 -4.04262592E-01
  1 1875 -2.95667074E-01
  1 1938 3.64885288E-01
  1 1941 4.79904544E-01
  1 1942 2.86469295E-01
  1 1945 3.73594589E-01
  1 1962 -3.23918463E-01
  1 1966 -3.89353953E-01
  1 1970 -4.42622487E-01
  1 1971 -3.82359693E-01
  1 1977 -4.42494290E-01
  1 1987 -3.82239783E-01
  1 1990 -3.89379406E-01
  1 1994 -4.42487973E-01
  1 1999 -3.82233870E-01
  1 2005 -4.42487664E-01
  1 2010 -3.82233580E-01
  1 2016 -4.42487649E-01
  1 2019 -3.82233566E-01
  1 2030 5.04225638E-01
  1 2035 2.36912496E-01
  1 2045 3.51359498E-01
  1 2128 3.77647139E-01
  1 2130 3.02869230E-01
  1 2159 4.04393650E-01
  1 2160 4.65086099E-01
  1 2162 4.02438759E-01
  1 2165 3.48349913E-01
  1 2168 3.38225659E-01
  1 2170 3.51627833E-01
  1 2172 3.93183832E-01
  1 2174 3.22045400E-01
  1 2201 3.68065475E-01
  1 2205 5.51403510E-01
  1 2218 5.42595033E-01
  1 2233 3.90690195E-01
  1 2235 3.35294728E-01
  1 2237 3.77084125E-01
  1 2265 2.81972792E-01
  1 2268 3.29958286E-01
  1 2271 4.89280389E-01
  1 2272 4.00603057E-01
  1 2292 4.73097493E-01
  1 2296 4.32311715E-01
  1 2301 2.68132953E-01
  1 2303 3.95523537E-01
  1 2304 4.07315729E-01
  1 2305 3.40948991E-01
  1 2340 3.46709875E-01
  1 2347 3.98511608E-01
  1 2349 3.20605239E-01
  1 2364 4.48147078E-01
  1 2372 3.38696216E-01
  1 2383 3.32877844E-01
  1 2386 3.20661247E-01
  1 2388 4.38457137E-01
  1 2398 3.08743088E-01
  1 2400 4.64326578E-01
  1 2431 4.71279900E-01
  1 2436 4.45825111E-01
  1 2441 2.69721935E-01
  1 2446 -4.04014992E-01
  1 2448 -3.73073775E-01
  1 2450 -3.88445366E-01
  1 2473 -4.55311894E-01
  1 2480 -3.85042475E-01
  1 2486 -4.02911370E-01
  1 2499 5.13205998E-01
  1 2504 -2.58423239E-01
  1 2506 -4.02127337E-01
  1 2508 4.36270391E-01
  1 2511 3.35829746E-01
  1 2515 3.60764474E-01
  1 2517 4.75387276E-01
  1 2521 -2.90846901E-01
  1 2526 -2.87097467E-01
  1 2527 3.84388191E-01
  1 2587 3.96743172E-01
  1 2590 2.66081983E-01
  1 2594 -5.18880353E-01
END period  1

