# File generated by Flopy version 3.10.0.dev5 on 01/30/2026 at 12:53:44.
BEGIN options
  PRINT_OPTION  summary
END options

BEGIN nonlinear
  OUTER_DVCLOSE  1.00000000E-06
  OUTER_MAXIMUM  100
END nonlinear

BEGIN linear
  INNER_MAXIMUM  50
  INNER_DVCLOSE  1.00000000E-06
  inner_rclose  1.00000000E-06  strict
  LINEAR_ACCELERATION  bicgstab
END linear

