# File generated by Flopy version 3.10.0.dev5 on 01/30/2026 at 12:53:59.
BEGIN options
  TIME_UNITS  days
END options

BEGIN dimensions
  NPER  52
END dimensions

BEGIN perioddata
       0.02083333  10       1.00000000
       0.02083333  10       1.00000000
       0.02083333  10       1.00000000
       0.02083333  10       1.00000000
       0.02083333  10       1.00000000
       0.02083333  10       1.00000000
       0.02083333  10       1.00000000
       0.02083333  10       1.00000000
       0.02083333  1       1.00000000
       0.02083333  1       1.00000000
       0.02083333  1       1.00000000
       0.02083333  1       1.00000000
       0.02083333  1       1.00000000
       0.02083333  1       1.00000000
       0.02083333  1       1.00000000
       0.02083333  1       1.00000000
       0.02083333  1       1.00000000
       0.02083333  1       1.00000000
       0.02083333  1       1.00000000
       0.02083333  1       1.00000000
       0.02083333  1       1.00000000
       0.02083333  1       1.00000000
       0.02083333  1       1.00000000
       0.02083333  1       1.00000000
       0.02083333  1       1.00000000
       0.02083333  1       1.00000000
       0.02083333  1       1.00000000
       0.02083333  1       1.00000000
       0.02083333  1       1.00000000
       0.02083333  1       1.00000000
       0.02083333  1       1.00000000
       0.02083333  1       1.00000000
       0.02083333  1       1.00000000
       0.02083333  1       1.00000000
       0.02083333  1       1.00000000
       0.02083333  1       1.00000000
       0.02083333  1       1.00000000
       0.02083333  1       1.00000000
       0.02083333  1       1.00000000
       0.02083333  1       1.00000000
       0.02083333  1       1.00000000
       0.02083333  1       1.00000000
       0.02083333  1       1.00000000
       0.02083333  1       1.00000000
       0.02083333  1       1.00000000
       0.02083333  1       1.00000000
       0.02083333  1       1.00000000
       0.02083333  1       1.00000000
       0.25000000  1       1.00000000
       0.25000000  1       1.00000000
       0.25000000  1       1.00000000
       0.25000000  1       1.00000000
END perioddata

