# File generated by Flopy version 3.10.0.dev5 on 01/30/2026 at 12:54:00.
BEGIN options
END options

BEGIN griddata
  alh
    CONSTANT       0.00000000
  ath1
    CONSTANT       0.00000000
  ktw
    CONSTANT   48384.00000000
  kts
    CONSTANT  2.16000000E+05
END griddata

