# File generated by Flopy version 3.10.0.dev5 on 01/30/2026 at 12:53:59.
BEGIN options
END options

BEGIN packages
  DISV6  gwe-radial.disv  disv-gwe
  IC6  gwe-radial.ic  ic
  ADV6  gwe-radial.adv  adv
  CND6  gwe-radial.cnd  cnd
  EST6  gwe-radial.est  est
  ESL6  gwe-radial.esl  esl-1
  SSM6  gwe-radial.ssm  ssm
  OC6  gwe-radial.oc  oc
  FMI6  gwe-radial.fmi  fmi
END packages

