# File generated by Flopy version 3.10.0.dev5 on 01/30/2026 at 12:53:59.
BEGIN options
END options

BEGIN timing
  TDIS6  ex-gwe-radial-slow-b.tdis
END timing

BEGIN models
  gwe6  gwe-radial.nam  gwe-radial
END models

BEGIN exchanges
END exchanges

BEGIN solutiongroup  1
  ims6  gwe-radial.ims  gwe-radial
END solutiongroup  1

