# File generated by Flopy version 3.10.0 on 05/09/2026 at 09:47:08.
BEGIN options
  SAVE_FLOWS
END options

BEGIN packages
  DIS6  sim_model_0146.dis  dis
  STO6  sim_model_0146.sto  sto
  NPF6  sim_model_0146.npf  npf
  IC6  sim_model_0146.ic  ic
  CHD6  sim_model_0146.chd  chd_0
  OC6  sim_model_0146.oc  oc
END packages

