# File generated by Flopy version 3.10.0.dev5 on 01/30/2026 at 12:54:41.
BEGIN options
END options

BEGIN griddata
  porosity
    CONSTANT       1.95700000
  volfrac
    CONSTANT       0.81093510
  zetaim
    CONSTANT      20.00000000
END griddata

