# File generated by Flopy version 3.10.0.dev5 on 01/30/2026 at 12:54:29.
BEGIN options
  SAVE_FLOWS
END options

BEGIN packages
  DIS6  gwf-inner.dis  dis
  IC6  gwf-inner.ic  ic
  NPF6  gwf-inner.npf  npf
  STO6  gwf-inner.sto  sto
  RCH6  gwf-inner.rch  rch-1
  WEL6  gwf-inner.wel  wel-1
  OC6  gwf-inner.oc  oc
END packages

