# File generated by Flopy version 3.10.0.dev5 on 01/30/2026 at 12:54:29.
BEGIN options
  SAVE_FLOWS
END options

BEGIN packages
  DIS6  gwt-outer.dis  dis
  IC6  gwt-outer.ic  ic
  ADV6  gwt-outer.adv  adv
  DSP6  gwt-outer.dsp  dsp-1
  MST6  gwt-outer.mst  mst-1
  SSM6  gwt-outer.ssm  ssm
  OC6  gwt-outer.oc  oc
END packages

