# File generated by Flopy version 3.10.0.dev5 on 01/30/2026 at 12:53:44.
BEGIN options
  auxiliary  TEMPERATURE
  SAVE_FLOWS
END options

BEGIN dimensions
  MAXBOUND  3
END dimensions

BEGIN period  1
  1 164 -5.00000000E-02 8.00000000E+01
  1 1179 -5.00000000E-02 8.00000000E+01
  1 68 5.00000000E+00 8.00000000E+01
END period  1

