# File generated by Flopy version 3.10.0.dev5 on 01/30/2026 at 12:53:44.
BEGIN options
  BUDGET  FILEOUT  ex-gwe-prt-gwf.cbc
  HEAD  FILEOUT  ex-gwe-prt-gwf.hds
END options

BEGIN period  1
  SAVE  HEAD  ALL
  SAVE  BUDGET  ALL
  PRINT  HEAD  LAST
  PRINT  BUDGET  LAST
END period  1

