# File generated by Flopy version 3.10.0.dev5 on 01/30/2026 at 12:53:41.
BEGIN options
  BUDGET  FILEOUT  ex-gwe-geotherm.cbc
  HEAD  FILEOUT  ex-gwe-geotherm.hds
END options

BEGIN period  1
  SAVE  HEAD  LAST
  SAVE  BUDGET  LAST
END period  1

