# File generated by Flopy version 3.10.0 on 05/09/2026 at 09:47:51.
BEGIN options
  SAVE_FLOWS
END options

BEGIN packages
  DIS6  sim_model_0699.dis  dis
  STO6  sim_model_0699.sto  sto
  NPF6  sim_model_0699.npf  npf
  IC6  sim_model_0699.ic  ic
  CHD6  sim_model_0699.chd  chd_0
  OC6  sim_model_0699.oc  oc
END packages

