# File generated by Flopy version 3.10.0.dev5 on 01/30/2026 at 12:53:41.
BEGIN options
END options

BEGIN timing
  TDIS6  ex-gwf-curvilin.tdis
END timing

BEGIN models
  gwf6  ex-gwf-curvilin.nam  ex-gwf-curvilin
END models

BEGIN exchanges
END exchanges

BEGIN solutiongroup  1
  ims6  ex-gwf-curvilin.ims  ex-gwf-curvilin
END solutiongroup  1

