# File generated by Flopy version 3.10.0.dev5 on 01/30/2026 at 12:54:35.
BEGIN options
  FIRST_ORDER_DECAY
END options

BEGIN griddata
  porosity
    CONSTANT       0.10000000
  decay
    CONSTANT       0.01000000
END griddata

