# File generated by Flopy version 3.10.0.dev5 on 01/30/2026 at 12:54:45.
BEGIN options
  SAVE_FLOWS
END options

BEGIN packages
  DIS6  gwt_p06-mf6.dis  dis
  IC6  gwt_p06-mf6.ic  ic
  ADV6  gwt_p06-mf6.adv  adv
  DSP6  gwt_p06-mf6.dsp  dsp
  MST6  gwt_p06-mf6.mst  mst
  SSM6  gwt_p06-mf6.ssm  ssm
  OC6  gwt_p06-mf6.oc  oc
  OBS6  gwt_p06-mf6.obs  obs_0
END packages

