# File generated by Flopy version 3.10.0.dev5 on 01/30/2026 at 12:54:45.
BEGIN options
END options

BEGIN continuous  FILEOUT  gwt_p06-mf6.obs.csv
  bckgrnd_cn  concentration  1 16 16
END continuous  FILEOUT  gwt_p06-mf6.obs.csv

