# File generated by Flopy version 3.10.0.dev5 on 01/30/2026 at 12:53:37.
BEGIN options
  TIME_UNITS  seconds
END options

BEGIN dimensions
  NPER  18
END dimensions

BEGIN perioddata
  5.25600000E+06  10       1.20000000
  5.25600000E+06  10       1.20000000
  5.25600000E+06  10       1.20000000
  5.25600000E+06  10       1.20000000
  5.25600000E+06  10       1.20000000
  5.25600000E+06  10       1.20000000
  5.25600000E+06  10       1.20000000
  5.25600000E+06  10       1.20000000
  5.25600000E+06  10       1.20000000
  5.25600000E+06  10       1.20000000
  5.25600000E+06  10       1.20000000
  5.25600000E+06  10       1.20000000
  5.25600000E+06  10       1.20000000
  5.25600000E+06  10       1.20000000
  5.25600000E+06  10       1.20000000
  5.25600000E+06  10       1.20000000
  5.25600000E+06  10       1.20000000
  5.25600000E+06  10       1.20000000
END perioddata

