# File generated by Flopy version 3.10.0.dev5 on 01/30/2026 at 12:53:37.
BEGIN options
  BUDGET  FILEOUT  gwe-bhe.cbc
  TEMPERATURE  FILEOUT  gwe-bhe.ucn
END options

BEGIN period  1
  SAVE  TEMPERATURE  ALL
  SAVE  BUDGET  ALL
  PRINT  BUDGET  ALL
END period  1

