# File generated by Flopy version 3.10.0.dev5 on 01/30/2026 at 12:53:37.
BEGIN options
END options

BEGIN packagedata
  GWFHEAD  FILEIN  ../mf6gwf/ex-gwe-bhe.hds
  GWFBUDGET  FILEIN  ../mf6gwf/ex-gwe-bhe.cbc
END packagedata

