# File generated by Flopy version 3.10.0.dev5 on 01/30/2026 at 12:53:37.
BEGIN options
END options

BEGIN timing
  TDIS6  ex-gwe-bhe.tdis
END timing

BEGIN models
  gwe6  gwe-bhe.nam  gwe-bhe
END models

BEGIN exchanges
END exchanges

BEGIN solutiongroup  1
  ims6  ex-gwe-bhe.ims  gwe-bhe
END solutiongroup  1

