# File generated by Flopy version 3.10.0.dev5 on 01/30/2026 at 12:54:40.
BEGIN options
  PRINT_OPTION  summary
END options

BEGIN nonlinear
  OUTER_DVCLOSE  1.00000000E-08
END nonlinear

BEGIN linear
  INNER_DVCLOSE  1.00000000E-08
END linear

