# File generated by Flopy version 3.10.0.dev5 on 01/30/2026 at 12:54:35.
BEGIN options
  DIGITS  10
  PRINT_INPUT
END options

BEGIN continuous  FILEOUT  trans.obs.csv
  X005  CONCENTRATION  1 1 1
  X405  CONCENTRATION  1 1 41
  X1105  CONCENTRATION  1 1 111
END continuous  FILEOUT  trans.obs.csv

