# File generated by Flopy version 3.8.0 on 05/07/2026 at 20:46:27.
BEGIN options
  SAVE_FLOWS
END options

BEGIN griddata
  icelltype
    CONSTANT  0
  k
    INTERNAL  FACTOR  1.0
         1.65986101       8.58522609       5.71253347       2.39456256       9.96801205       8.46006719       9.63581851       4.49376013       1.13090131       8.40892544
         4.60359276       5.53807337       8.80127446       7.13802489       2.80262246       1.12669988       7.08978279       9.83821342       9.11606659       8.59899362
         3.19610104       1.70639527       5.44983822       9.41433558       1.12134510       3.42309330       4.04123891       5.65612129       8.37344765       5.31334336
         7.37953368       8.13061820       8.31949319       1.47377266       6.02673402       8.39230879       9.15654348       2.34428421       8.34612027       4.23546354
         6.22603790       3.91270474       5.65926125       1.06818629       5.42016168       4.59894641       2.98342890       1.53703126       6.97954099       8.56482099
         9.60698504       5.15219015       8.64763900       6.59758483       1.27353804       4.63586122       7.57729826       4.09563523       8.17165656       3.56791069
         1.47963280       7.86184201       2.32836722       6.43076651       2.79260068       7.69303715       1.78781972       9.84079542       4.08491550       5.67673252
         4.25532810       9.20455892       9.91294017       5.81442293       4.97608782       9.67903012       4.61249006       1.45561295       7.52439909       5.99830806
         5.56289577       3.74102162       4.64494550       1.05118027       9.38357260       2.80868201       8.25638742       2.74205650       9.38500298       1.44375132
         5.94551161       3.92609149       4.94175772       7.13749169       2.98115634       3.51804071       9.31408495       2.48660831       6.45323450       3.09958105
END griddata

