# File generated by Flopy version 3.10.0.dev5 on 01/30/2026 at 12:54:34.
BEGIN options
  CONTINUE
END options

BEGIN timing
  TDIS6  track.tdis
END timing

BEGIN models
  prt6  track.nam  track
END models

BEGIN exchanges
END exchanges

BEGIN solutiongroup  1
  ems6  track.ems  track
END solutiongroup  1

