# File generated by Flopy version 3.10.0.dev5 on 01/30/2026 at 12:54:02.
BEGIN options
END options

BEGIN packages
  DIS6  ex-gwe-vsc-02.dis  dis
  EST6  ex-gwe-vsc-02.est  est
  IC6  ex-gwe-vsc-02.ic  ic
  ADV6  ex-gwe-vsc-02.adv  adv
  CTP6  ex-gwe-vsc-02.ctp  ctp
  CND6  ex-gwe-vsc-02.cnd  cnd
  SSM6  ex-gwe-vsc-02.ssm  ssm
  OC6  ex-gwe-vsc-02.oc  oc
END packages

