# File generated by Flopy version 3.10.0.dev5 on 01/30/2026 at 12:54:02.
BEGIN options
  SAVE_FLOWS
END options

BEGIN packages
  DIS6  ex-gwf-vsc-01.dis  dis
  NPF6  ex-gwf-vsc-01.npf  npf
  IC6  ex-gwf-vsc-01.ic  ic
  STO6  ex-gwf-vsc-01.sto  sto
  WEL6  ex-gwf-vsc-01.wel  wel-1
  CHD6  ex-gwf-vsc-01.left.chd  chd-l
  CHD6  ex-gwf-vsc-01.right.chd  chd-r
  OC6  ex-gwf-vsc-01.oc  oc
END packages

