# File generated by Flopy version 3.10.0.dev5 on 01/30/2026 at 12:54:44.
BEGIN options
END options

BEGIN griddata
  iconvert
    CONSTANT  0
  ss
    CONSTANT       0.00000000
  sy
    CONSTANT       0.00000000
END griddata

