# File generated by Flopy version 3.10.0.dev5 on 01/30/2026 at 12:54:44.
BEGIN options
END options

BEGIN dimensions
  MAXBOUND  1
END dimensions

BEGIN period  1
  1 16 16       1.00000000
END period  1

