# File generated by Flopy version 3.10.0.dev5 on 01/30/2026 at 12:55:25.
BEGIN options
  XT3D
  SAVE_SPECIFIC_DISCHARGE
END options

BEGIN griddata
  icelltype
    CONSTANT  0
  k
    CONSTANT       1.00000000
END griddata

