# File generated by Flopy version 3.10.0.dev5 on 01/30/2026 at 12:55:25.
BEGIN options
  LENGTH_UNITS  meters
END options

BEGIN dimensions
  NLAY  1
  NCPL  121
  NVERT  148
END dimensions

BEGIN griddata
  top
    INTERNAL  FACTOR  1.0
         0.00000000       0.00000000       0.00000000       0.00000000       0.00000000       0.00000000       0.00000000       0.00000000       0.00000000       0.00000000       0.00000000       0.00000000       0.00000000       0.00000000       0.00000000       0.00000000       0.00000000       0.00000000       0.00000000       0.00000000
         0.00000000       0.00000000       0.00000000       0.00000000       0.00000000       0.00000000       0.00000000       0.00000000       0.00000000       0.00000000       0.00000000       0.00000000       0.00000000       0.00000000       0.00000000       0.00000000       0.00000000       0.00000000       0.00000000       0.00000000
         0.00000000       0.00000000       0.00000000       0.00000000       0.00000000       0.00000000       0.00000000       0.00000000       0.00000000       0.00000000       0.00000000       0.00000000       0.00000000       0.00000000       0.00000000       0.00000000       0.00000000       0.00000000       0.00000000       0.00000000
         0.00000000       0.00000000       0.00000000       0.00000000       0.00000000       0.00000000       0.00000000       0.00000000       0.00000000       0.00000000       0.00000000       0.00000000       0.00000000       0.00000000       0.00000000       0.00000000       0.00000000       0.00000000       0.00000000       0.00000000
         0.00000000       0.00000000       0.00000000       0.00000000       0.00000000       0.00000000       0.00000000       0.00000000       0.00000000       0.00000000       0.00000000       0.00000000       0.00000000       0.00000000       0.00000000       0.00000000       0.00000000       0.00000000       0.00000000       0.00000000
         0.00000000       0.00000000       0.00000000       0.00000000       0.00000000       0.00000000       0.00000000       0.00000000       0.00000000       0.00000000       0.00000000       0.00000000       0.00000000       0.00000000       0.00000000       0.00000000       0.00000000       0.00000000       0.00000000       0.00000000
         0.00000000
  botm
    INTERNAL  FACTOR  1.0
      -100.00000000    -100.00000000    -100.00000000    -100.00000000    -100.00000000    -100.00000000    -100.00000000    -100.00000000    -100.00000000    -100.00000000    -100.00000000    -100.00000000    -100.00000000    -100.00000000    -100.00000000    -100.00000000    -100.00000000    -100.00000000    -100.00000000    -100.00000000
      -100.00000000    -100.00000000    -100.00000000    -100.00000000    -100.00000000    -100.00000000    -100.00000000    -100.00000000    -100.00000000    -100.00000000    -100.00000000    -100.00000000    -100.00000000    -100.00000000    -100.00000000    -100.00000000    -100.00000000    -100.00000000    -100.00000000    -100.00000000
      -100.00000000    -100.00000000    -100.00000000    -100.00000000    -100.00000000    -100.00000000    -100.00000000    -100.00000000    -100.00000000    -100.00000000    -100.00000000    -100.00000000    -100.00000000    -100.00000000    -100.00000000    -100.00000000    -100.00000000    -100.00000000    -100.00000000    -100.00000000
      -100.00000000    -100.00000000    -100.00000000    -100.00000000    -100.00000000    -100.00000000    -100.00000000    -100.00000000    -100.00000000    -100.00000000    -100.00000000    -100.00000000    -100.00000000    -100.00000000    -100.00000000    -100.00000000    -100.00000000    -100.00000000    -100.00000000    -100.00000000
      -100.00000000    -100.00000000    -100.00000000    -100.00000000    -100.00000000    -100.00000000    -100.00000000    -100.00000000    -100.00000000    -100.00000000    -100.00000000    -100.00000000    -100.00000000    -100.00000000    -100.00000000    -100.00000000    -100.00000000    -100.00000000    -100.00000000    -100.00000000
      -100.00000000    -100.00000000    -100.00000000    -100.00000000    -100.00000000    -100.00000000    -100.00000000    -100.00000000    -100.00000000    -100.00000000    -100.00000000    -100.00000000    -100.00000000    -100.00000000    -100.00000000    -100.00000000    -100.00000000    -100.00000000    -100.00000000    -100.00000000
      -100.00000000
END griddata

BEGIN vertices
  1       0.00000000     700.00000000
  2     100.00000000     700.00000000
  3     200.00000000     700.00000000
  4     300.00000000     700.00000000
  5     400.00000000     700.00000000
  6     500.00000000     700.00000000
  7     600.00000000     700.00000000
  8     700.00000000     700.00000000
  9       0.00000000     600.00000000
  10     100.00000000     600.00000000
  11     200.00000000     600.00000000
  12     300.00000000     600.00000000
  13     400.00000000     600.00000000
  14     500.00000000     600.00000000
  15     600.00000000     600.00000000
  16     700.00000000     600.00000000
  17       0.00000000     500.00000000
  18     100.00000000     500.00000000
  19     200.00000000     500.00000000
  20     300.00000000     500.00000000
  21     400.00000000     500.00000000
  22     500.00000000     500.00000000
  23     600.00000000     500.00000000
  24     700.00000000     500.00000000
  25       0.00000000     400.00000000
  26     100.00000000     400.00000000
  27     200.00000000     400.00000000
  28     300.00000000     400.00000000
  29     400.00000000     400.00000000
  30     500.00000000     400.00000000
  31     600.00000000     400.00000000
  32     700.00000000     400.00000000
  33       0.00000000     300.00000000
  34     100.00000000     300.00000000
  35     200.00000000     300.00000000
  36     300.00000000     300.00000000
  37     400.00000000     300.00000000
  38     500.00000000     300.00000000
  39     600.00000000     300.00000000
  40     700.00000000     300.00000000
  41       0.00000000     200.00000000
  42     100.00000000     200.00000000
  43     200.00000000     200.00000000
  44     300.00000000     200.00000000
  45     400.00000000     200.00000000
  46     500.00000000     200.00000000
  47     600.00000000     200.00000000
  48     700.00000000     200.00000000
  49       0.00000000     100.00000000
  50     100.00000000     100.00000000
  51     200.00000000     100.00000000
  52     300.00000000     100.00000000
  53     400.00000000     100.00000000
  54     500.00000000     100.00000000
  55     600.00000000     100.00000000
  56     700.00000000     100.00000000
  57       0.00000000       0.00000000
  58     100.00000000       0.00000000
  59     200.00000000       0.00000000
  60     300.00000000       0.00000000
  61     400.00000000       0.00000000
  62     500.00000000       0.00000000
  63     600.00000000       0.00000000
  64     700.00000000       0.00000000
  65     233.33333333     500.00000000
  66     266.66666667     500.00000000
  67     333.33333333     500.00000000
  68     366.66666667     500.00000000
  69     433.33333333     500.00000000
  70     466.66666667     500.00000000
  71     200.00000000     466.66666667
  72     233.33333333     466.66666667
  73     266.66666667     466.66666667
  74     300.00000000     466.66666667
  75     333.33333333     466.66666667
  76     366.66666667     466.66666667
  77     400.00000000     466.66666667
  78     433.33333333     466.66666667
  79     466.66666667     466.66666667
  80     500.00000000     466.66666667
  81     200.00000000     433.33333333
  82     233.33333333     433.33333333
  83     266.66666667     433.33333333
  84     300.00000000     433.33333333
  85     333.33333333     433.33333333
  86     366.66666667     433.33333333
  87     400.00000000     433.33333333
  88     433.33333333     433.33333333
  89     466.66666667     433.33333333
  90     500.00000000     433.33333333
  91     233.33333333     400.00000000
  92     266.66666667     400.00000000
  93     333.33333333     400.00000000
  94     366.66666667     400.00000000
  95     433.33333333     400.00000000
  96     466.66666667     400.00000000
  97     200.00000000     366.66666667
  98     233.33333333     366.66666667
  99     266.66666667     366.66666667
  100     300.00000000     366.66666667
  101     333.33333333     366.66666667
  102     366.66666667     366.66666667
  103     400.00000000     366.66666667
  104     433.33333333     366.66666667
  105     466.66666667     366.66666667
  106     500.00000000     366.66666667
  107     200.00000000     333.33333333
  108     233.33333333     333.33333333
  109     266.66666667     333.33333333
  110     300.00000000     333.33333333
  111     333.33333333     333.33333333
  112     366.66666667     333.33333333
  113     400.00000000     333.33333333
  114     433.33333333     333.33333333
  115     466.66666667     333.33333333
  116     500.00000000     333.33333333
  117     233.33333333     300.00000000
  118     266.66666667     300.00000000
  119     333.33333333     300.00000000
  120     366.66666667     300.00000000
  121     433.33333333     300.00000000
  122     466.66666667     300.00000000
  123     200.00000000     266.66666667
  124     233.33333333     266.66666667
  125     266.66666667     266.66666667
  126     300.00000000     266.66666667
  127     333.33333333     266.66666667
  128     366.66666667     266.66666667
  129     400.00000000     266.66666667
  130     433.33333333     266.66666667
  131     466.66666667     266.66666667
  132     500.00000000     266.66666667
  133     200.00000000     233.33333333
  134     233.33333333     233.33333333
  135     266.66666667     233.33333333
  136     300.00000000     233.33333333
  137     333.33333333     233.33333333
  138     366.66666667     233.33333333
  139     400.00000000     233.33333333
  140     433.33333333     233.33333333
  141     466.66666667     233.33333333
  142     500.00000000     233.33333333
  143     233.33333333     200.00000000
  144     266.66666667     200.00000000
  145     333.33333333     200.00000000
  146     366.66666667     200.00000000
  147     433.33333333     200.00000000
  148     466.66666667     200.00000000
END vertices

BEGIN cell2d
  1      50.00000000     650.00000000  4  1  2  10  9
  2     150.00000000     650.00000000  4  2  3  11  10
  3     250.00000000     650.00000000  4  3  4  12  11
  4     350.00000000     650.00000000  4  4  5  13  12
  5     450.00000000     650.00000000  4  5  6  14  13
  6     550.00000000     650.00000000  4  6  7  15  14
  7     650.00000000     650.00000000  4  7  8  16  15
  8      50.00000000     550.00000000  4  9  10  18  17
  9     150.00000000     550.00000000  4  10  11  19  18
  10     250.00000000     550.00000000  6  11  12  20  66  65  19
  11     350.00000000     550.00000000  6  12  13  21  68  67  20
  12     450.00000000     550.00000000  6  13  14  22  70  69  21
  13     550.00000000     550.00000000  4  14  15  23  22
  14     650.00000000     550.00000000  4  15  16  24  23
  15      50.00000000     450.00000000  4  17  18  26  25
  16     150.00000000     450.00000000  6  18  19  71  81  27  26
  17     550.00000000     450.00000000  6  22  23  31  30  90  80
  18     650.00000000     450.00000000  4  23  24  32  31
  19      50.00000000     350.00000000  4  25  26  34  33
  20     150.00000000     350.00000000  6  26  27  97  107  35  34
  21     550.00000000     350.00000000  6  30  31  39  38  116  106
  22     650.00000000     350.00000000  4  31  32  40  39
  23      50.00000000     250.00000000  4  33  34  42  41
  24     150.00000000     250.00000000  6  34  35  123  133  43  42
  25     550.00000000     250.00000000  6  38  39  47  46  142  132
  26     650.00000000     250.00000000  4  39  40  48  47
  27      50.00000000     150.00000000  4  41  42  50  49
  28     150.00000000     150.00000000  4  42  43  51  50
  29     250.00000000     150.00000000  6  43  143  144  44  52  51
  30     350.00000000     150.00000000  6  44  145  146  45  53  52
  31     450.00000000     150.00000000  6  45  147  148  46  54  53
  32     550.00000000     150.00000000  4  46  47  55  54
  33     650.00000000     150.00000000  4  47  48  56  55
  34      50.00000000      50.00000000  4  49  50  58  57
  35     150.00000000      50.00000000  4  50  51  59  58
  36     250.00000000      50.00000000  4  51  52  60  59
  37     350.00000000      50.00000000  4  52  53  61  60
  38     450.00000000      50.00000000  4  53  54  62  61
  39     550.00000000      50.00000000  4  54  55  63  62
  40     650.00000000      50.00000000  4  55  56  64  63
  41     216.66666667     483.33333333  4  19  65  72  71
  42     250.00000000     483.33333333  4  65  66  73  72
  43     283.33333333     483.33333333  4  66  20  74  73
  44     316.66666667     483.33333333  4  20  67  75  74
  45     350.00000000     483.33333333  4  67  68  76  75
  46     383.33333333     483.33333333  4  68  21  77  76
  47     416.66666667     483.33333333  4  21  69  78  77
  48     450.00000000     483.33333333  4  69  70  79  78
  49     483.33333333     483.33333333  4  70  22  80  79
  50     216.66666667     450.00000000  4  71  72  82  81
  51     250.00000000     450.00000000  4  72  73  83  82
  52     283.33333333     450.00000000  4  73  74  84  83
  53     316.66666667     450.00000000  4  74  75  85  84
  54     350.00000000     450.00000000  4  75  76  86  85
  55     383.33333333     450.00000000  4  76  77  87  86
  56     416.66666667     450.00000000  4  77  78  88  87
  57     450.00000000     450.00000000  4  78  79  89  88
  58     483.33333333     450.00000000  4  79  80  90  89
  59     216.66666667     416.66666667  4  81  82  91  27
  60     250.00000000     416.66666667  4  82  83  92  91
  61     283.33333333     416.66666667  4  83  84  28  92
  62     316.66666667     416.66666667  4  84  85  93  28
  63     350.00000000     416.66666667  4  85  86  94  93
  64     383.33333333     416.66666667  4  86  87  29  94
  65     416.66666667     416.66666667  4  87  88  95  29
  66     450.00000000     416.66666667  4  88  89  96  95
  67     483.33333333     416.66666667  4  89  90  30  96
  68     216.66666667     383.33333333  4  27  91  98  97
  69     250.00000000     383.33333333  4  91  92  99  98
  70     283.33333333     383.33333333  4  92  28  100  99
  71     316.66666667     383.33333333  4  28  93  101  100
  72     350.00000000     383.33333333  4  93  94  102  101
  73     383.33333333     383.33333333  4  94  29  103  102
  74     416.66666667     383.33333333  4  29  95  104  103
  75     450.00000000     383.33333333  4  95  96  105  104
  76     483.33333333     383.33333333  4  96  30  106  105
  77     216.66666667     350.00000000  4  97  98  108  107
  78     250.00000000     350.00000000  4  98  99  109  108
  79     283.33333333     350.00000000  4  99  100  110  109
  80     316.66666667     350.00000000  4  100  101  111  110
  81     350.00000000     350.00000000  4  101  102  112  111
  82     383.33333333     350.00000000  4  102  103  113  112
  83     416.66666667     350.00000000  4  103  104  114  113
  84     450.00000000     350.00000000  4  104  105  115  114
  85     483.33333333     350.00000000  4  105  106  116  115
  86     216.66666667     316.66666667  4  107  108  117  35
  87     250.00000000     316.66666667  4  108  109  118  117
  88     283.33333333     316.66666667  4  109  110  36  118
  89     316.66666667     316.66666667  4  110  111  119  36
  90     350.00000000     316.66666667  4  111  112  120  119
  91     383.33333333     316.66666667  4  112  113  37  120
  92     416.66666667     316.66666667  4  113  114  121  37
  93     450.00000000     316.66666667  4  114  115  122  121
  94     483.33333333     316.66666667  4  115  116  38  122
  95     216.66666667     283.33333333  4  35  117  124  123
  96     250.00000000     283.33333333  4  117  118  125  124
  97     283.33333333     283.33333333  4  118  36  126  125
  98     316.66666667     283.33333333  4  36  119  127  126
  99     350.00000000     283.33333333  4  119  120  128  127
  100     383.33333333     283.33333333  4  120  37  129  128
  101     416.66666667     283.33333333  4  37  121  130  129
  102     450.00000000     283.33333333  4  121  122  131  130
  103     483.33333333     283.33333333  4  122  38  132  131
  104     216.66666667     250.00000000  4  123  124  134  133
  105     250.00000000     250.00000000  4  124  125  135  134
  106     283.33333333     250.00000000  4  125  126  136  135
  107     316.66666667     250.00000000  4  126  127  137  136
  108     350.00000000     250.00000000  4  127  128  138  137
  109     383.33333333     250.00000000  4  128  129  139  138
  110     416.66666667     250.00000000  4  129  130  140  139
  111     450.00000000     250.00000000  4  130  131  141  140
  112     483.33333333     250.00000000  4  131  132  142  141
  113     216.66666667     216.66666667  4  133  134  143  43
  114     250.00000000     216.66666667  4  134  135  144  143
  115     283.33333333     216.66666667  4  135  136  44  144
  116     316.66666667     216.66666667  4  136  137  145  44
  117     350.00000000     216.66666667  4  137  138  146  145
  118     383.33333333     216.66666667  4  138  139  45  146
  119     416.66666667     216.66666667  4  139  140  147  45
  120     450.00000000     216.66666667  4  140  141  148  147
  121     483.33333333     216.66666667  4  141  142  46  148
END cell2d

