# File generated by Flopy version 3.10.0.dev5 on 01/30/2026 at 12:53:37.
BEGIN options
  SAVE_FLOWS
END options

BEGIN packages
  DIS6  gwf-bhe.dis  dis
  NPF6  gwf-bhe.npf  npf
  IC6  gwf-bhe.ic  ic
  STO6  gwf-bhe.sto  sto
  CHD6  gwf-bhe.chd  chd_0
  OC6  gwf-bhe.oc  oc
END packages

