# File generated by Flopy version 3.8.0 on 05/07/2026 at 20:45:35.
BEGIN options
  SAVE_FLOWS
END options

BEGIN griddata
  icelltype
    CONSTANT  0
  k
    INTERNAL  FACTOR  1.0
         4.59514647       1.64767455       8.19714905       1.92468419       8.92743145       4.99213550       7.36165759       2.53110836       8.60760212       1.46027279
         7.07001650       8.53502777       5.68057594       2.78705111       9.08862398       9.97452776       7.70528138       4.15289677       6.09218961       2.24004357
         6.17002358       3.06592129       4.95428953       3.33549792       8.94325250       7.91651926       6.33126810       7.94427650       6.10879380       1.67157611
         1.05665147       1.76333113       8.69531441       2.79351769       3.82745156       8.69242432       2.79385316       4.21277233       6.12159752       5.46679523
         7.42213627       1.64060337       5.06526862       3.37565977       4.97748316       1.88797389       2.65953757       9.61296209       2.06805035       4.85013022
         3.20012303       2.62072626       8.25486111       4.37285475       8.59116300       3.81272902       5.60979716       3.46807619       7.30276940       1.43477162
         5.32395064       3.28533391       8.83870708       9.40008226       9.85432382       5.01291370       6.77715106       2.41495938       6.51305759       9.35193601
         7.14674544       4.62287714       1.74697600       6.47836594       4.80456473       8.95186010       6.82797285       4.32708359       8.01365636       7.53548581
         6.25888122       9.59040856       7.72035706       4.15578401       7.86563129       5.11224652       2.08592667       1.78993949       9.80219925       4.96467596
         1.69670627       4.47621663       8.89218774       8.43537955       4.90684004       5.35667039       4.05496118       7.20533861       9.44568585       8.04509560
END griddata

