# File generated by Flopy version 3.10.0.dev5 on 01/30/2026 at 12:53:32.
BEGIN options
END options

BEGIN timing
  TDIS6  ex-gwf-bump.tdis
END timing

BEGIN models
  gwf6  ex-gwf-bump.nam  ex-gwf-bump
END models

BEGIN exchanges
END exchanges

BEGIN solutiongroup  1
  ims6  ex-gwf-bump.ims  ex-gwf-bump
END solutiongroup  1

