# File generated by Flopy version 3.10.0.dev5 on 01/30/2026 at 12:54:27.
BEGIN options
END options

BEGIN dimensions
  MAXBOUND  100
END dimensions

BEGIN period  1
  1 1       1.00000000
  1 2  3.74939946E-33
  1 4  3.74939946E-33
  1 6  3.74939946E-33
  1 7  3.74939946E-33
  1 14  3.74939946E-33
  1 966  3.74939946E-33
  1 1131  3.74939946E-33
  1 1204  3.74939946E-33
  1 1217  3.74939946E-33
  1 1249  3.74939946E-33
  1 1258  3.74939946E-33
  1 1280  3.74939946E-33
  1 1281  3.74939946E-33
  1 1283  3.74939946E-33
  1 1288  3.74939946E-33
  1 1289  3.74939946E-33
  1 1352  3.74939946E-33
  1 1384  3.74939946E-33
  1 1387  3.74939946E-33
  1 1389  3.74939946E-33
  1 1390  3.74939946E-33
  1 1505  3.74939946E-33
  1 1543  3.74939946E-33
  1 1618  3.74939946E-33
  1 1636  3.74939946E-33
  1 1657  3.74939946E-33
  1 1672  3.74939946E-33
  1 1690  3.74939946E-33
  1 1716  3.74939946E-33
  1 1717  3.74939946E-33
  1 1721  3.74939946E-33
  1 1722  3.74939946E-33
  1 1772  3.74939946E-33
  1 1773  3.74939946E-33
  1 1780  3.74939946E-33
  1 1781  3.74939946E-33
  1 1786  3.74939946E-33
  1 1787  3.74939946E-33
  1 1793  3.74939946E-33
  1 1803  3.74939946E-33
  1 1806  3.74939946E-33
  1 1810  3.74939946E-33
  1 1816  3.74939946E-33
  1 1823  3.74939946E-33
  1 1828  3.74939946E-33
  1 1938       0.03290080
  1 1941  3.74939946E-33
  1 1942  3.74939946E-33
  1 1945  3.74939946E-33
  1 2030  3.74939946E-33
  1 2035  3.74939946E-33
  1 2045  3.74939946E-33
  1 2128  3.74939946E-33
  1 2130  3.74939946E-33
  1 2159  3.74939946E-33
  1 2160  3.74939946E-33
  1 2162  3.74939946E-33
  1 2165  3.74939946E-33
  1 2168  3.74939946E-33
  1 2170  3.74939946E-33
  1 2172  3.74939946E-33
  1 2174  3.74939946E-33
  1 2201       0.03290080
  1 2205  3.74939946E-33
  1 2218  3.74939946E-33
  1 2233  3.74939946E-33
  1 2235  3.74939946E-33
  1 2237  3.74939946E-33
  1 2265  3.74939946E-33
  1 2268  3.74939946E-33
  1 2271  3.74939946E-33
  1 2272  3.74939946E-33
  1 2292  3.74939946E-33
  1 2296  3.74939946E-33
  1 2301  7.82371828E-05
  1 2303  3.74939946E-33
  1 2304  3.74939946E-33
  1 2305  3.74939946E-33
  1 2340       0.59069288
  1 2347  3.74939946E-33
  1 2349  3.74939946E-33
  1 2364       0.25512410
  1 2372  3.74939946E-33
  1 2383  3.74939946E-33
  1 2386  3.74939946E-33
  1 2388  7.82371828E-05
  1 2398       0.59069288
  1 2400       0.25512410
  1 2431       0.88428274
  1 2436       0.88428274
  1 2441       0.41801942
  1 2499  3.74939946E-33
  1 2508  3.74939946E-33
  1 2511  3.74939946E-33
  1 2515  3.74939946E-33
  1 2517  3.74939946E-33
  1 2527  3.74939946E-33
  1 2587  3.74939946E-33
  1 2590  3.74939946E-33
END period  1

