# File generated by Flopy version 3.10.0.dev5 on 01/30/2026 at 12:54:41.
BEGIN options
  SORPTION  langmuir
END options

BEGIN griddata
  porosity
    CONSTANT       0.37000000
  bulk_density
    CONSTANT       1.58700000
  distcoef
    CONSTANT     100.00000000
  sp2
    CONSTANT       0.00300000
END griddata

