# File generated by Flopy version 3.10.0.dev5 on 01/30/2026 at 12:53:59.
BEGIN options
  TIME_UNITS  days
END options

BEGIN dimensions
  NPER  1
END dimensions

BEGIN perioddata
       2.31481500  50       1.20000000
END perioddata

