# File generated by Flopy version 3.10.0.dev5 on 01/30/2026 at 12:53:35.
BEGIN options
  SAVE_FLOWS
  
  SAVE_SPECIFIC_DISCHARGE
  SAVE_SATURATION
END options

BEGIN griddata
  icelltype
    CONSTANT  0
  k  LAYERED
    CONSTANT  1.00000000E-21
    CONSTANT  1.00000000E-21
    CONSTANT  1.00000000E-21
    CONSTANT  1.00000000E-21
    CONSTANT  1.00000000E-21
    CONSTANT  1.00000000E-21
    CONSTANT  1.00000000E-21
    CONSTANT  1.00000000E-21
    CONSTANT  1.00000000E-21
    CONSTANT  1.00000000E-21
    CONSTANT  1.00000000E-21
    CONSTANT  1.00000000E-21
    CONSTANT  1.00000000E-21
    CONSTANT  1.00000000E-21
    CONSTANT  1.00000000E-21
    CONSTANT  1.00000000E-21
    CONSTANT  1.00000000E-21
    CONSTANT  1.00000000E-21
    CONSTANT  1.00000000E-21
    CONSTANT  1.00000000E-21
    CONSTANT  1.00000000E-21
    CONSTANT  1.00000000E-21
    CONSTANT  1.00000000E-21
    CONSTANT  1.00000000E-21
    CONSTANT  1.00000000E-21
    CONSTANT  1.00000000E-21
    CONSTANT  1.00000000E-21
    CONSTANT  1.00000000E-21
    CONSTANT  1.00000000E-21
    CONSTANT  1.00000000E-21
    CONSTANT  1.00000000E-21
    CONSTANT  1.00000000E-21
    CONSTANT  1.00000000E-21
    CONSTANT  1.00000000E-21
    CONSTANT  1.00000000E-21
    CONSTANT  1.00000000E-21
    CONSTANT  1.00000000E-21
    CONSTANT  1.00000000E-21
    CONSTANT  1.00000000E-21
    CONSTANT  1.00000000E-21
    CONSTANT  1.00000000E-21
    CONSTANT  1.00000000E-21
    CONSTANT  1.00000000E-21
    CONSTANT  1.00000000E-21
    CONSTANT  1.00000000E-21
    CONSTANT  1.00000000E-21
    CONSTANT  1.00000000E-21
    CONSTANT  1.00000000E-21
    CONSTANT  1.00000000E-21
    CONSTANT  1.00000000E-21
    CONSTANT  1.00000000E-21
    CONSTANT  1.00000000E-21
    CONSTANT  1.00000000E-21
    CONSTANT  1.00000000E-21
    CONSTANT  1.00000000E-21
    CONSTANT  1.00000000E-21
    CONSTANT  1.00000000E-21
    CONSTANT  1.00000000E-21
    CONSTANT  1.00000000E-21
    CONSTANT  1.00000000E-21
    CONSTANT  1.00000000E-21
    CONSTANT  1.00000000E-21
    CONSTANT  1.00000000E-21
    CONSTANT  1.00000000E-21
    CONSTANT  1.00000000E-21
    CONSTANT  1.00000000E-21
    CONSTANT  1.00000000E-21
    CONSTANT  1.00000000E-21
    CONSTANT  1.00000000E-21
    CONSTANT  1.00000000E-21
    CONSTANT  1.00000000E-21
    CONSTANT  1.00000000E-21
    CONSTANT  1.00000000E-21
    CONSTANT  1.00000000E-21
    CONSTANT  1.00000000E-21
    CONSTANT  1.00000000E-21
    CONSTANT  1.00000000E-21
    CONSTANT  1.00000000E-21
    CONSTANT  1.00000000E-21
    CONSTANT  1.00000000E-21
    CONSTANT  1.00000000E-21
    CONSTANT  1.00000000E-21
    CONSTANT  1.00000000E-21
    CONSTANT  1.00000000E-21
    CONSTANT  1.00000000E-21
    CONSTANT  1.00000000E-21
    CONSTANT  1.00000000E-21
    CONSTANT  1.00000000E-21
    CONSTANT  1.00000000E-21
    CONSTANT  1.00000000E-21
    CONSTANT  1.00000000E-21
    CONSTANT  1.00000000E-21
    CONSTANT  1.00000000E-21
    CONSTANT  1.00000000E-21
    CONSTANT  1.00000000E-21
    CONSTANT  1.00000000E-21
    CONSTANT  1.00000000E-21
    CONSTANT  1.00000000E-21
    CONSTANT  1.00000000E-21
    CONSTANT  1.00000000E-21
    CONSTANT  9.80670000E-07
    CONSTANT  9.80670000E-07
    CONSTANT  9.80670000E-07
    CONSTANT  9.80670000E-07
    CONSTANT  9.80670000E-07
    CONSTANT  9.80670000E-07
    CONSTANT  9.80670000E-07
    CONSTANT  9.80670000E-07
    CONSTANT  9.80670000E-07
    CONSTANT  9.80670000E-07
    CONSTANT  9.80670000E-07
    CONSTANT  9.80670000E-07
    CONSTANT  9.80670000E-07
    CONSTANT  9.80670000E-07
    CONSTANT  9.80670000E-07
    CONSTANT  9.80670000E-07
    CONSTANT  9.80670000E-07
    CONSTANT  9.80670000E-07
    CONSTANT  9.80670000E-07
    CONSTANT  9.80670000E-07
    CONSTANT  9.80670000E-07
    CONSTANT  9.80670000E-07
    CONSTANT  9.80670000E-07
    CONSTANT  9.80670000E-07
    CONSTANT  9.80670000E-07
    CONSTANT  9.80670000E-07
    CONSTANT  9.80670000E-07
    CONSTANT  9.80670000E-07
    CONSTANT  9.80670000E-07
    CONSTANT  9.80670000E-07
    CONSTANT  9.80670000E-07
    CONSTANT  9.80670000E-07
    CONSTANT  9.80670000E-07
    CONSTANT  9.80670000E-07
    CONSTANT  9.80670000E-07
    CONSTANT  9.80670000E-07
    CONSTANT  9.80670000E-07
    CONSTANT  9.80670000E-07
    CONSTANT  9.80670000E-07
    CONSTANT  9.80670000E-07
    CONSTANT  9.80670000E-07
    CONSTANT  9.80670000E-07
    CONSTANT  9.80670000E-07
    CONSTANT  9.80670000E-07
    CONSTANT  9.80670000E-07
    CONSTANT  9.80670000E-07
    CONSTANT  9.80670000E-07
    CONSTANT  9.80670000E-07
    CONSTANT  9.80670000E-07
    CONSTANT  9.80670000E-07
    CONSTANT  9.80670000E-07
    CONSTANT  9.80670000E-07
    CONSTANT  9.80670000E-07
    CONSTANT  9.80670000E-07
    CONSTANT  9.80670000E-07
    CONSTANT  9.80670000E-07
    CONSTANT  9.80670000E-07
    CONSTANT  9.80670000E-07
    CONSTANT  9.80670000E-07
    CONSTANT  9.80670000E-07
    CONSTANT  9.80670000E-07
    CONSTANT  9.80670000E-07
    CONSTANT  9.80670000E-07
    CONSTANT  9.80670000E-07
    CONSTANT  9.80670000E-07
    CONSTANT  9.80670000E-07
    CONSTANT  9.80670000E-07
    CONSTANT  9.80670000E-07
    CONSTANT  9.80670000E-07
    CONSTANT  9.80670000E-07
    CONSTANT  9.80670000E-07
    CONSTANT  9.80670000E-07
    CONSTANT  9.80670000E-07
    CONSTANT  9.80670000E-07
    CONSTANT  9.80670000E-07
    CONSTANT  9.80670000E-07
    CONSTANT  9.80670000E-07
    CONSTANT  9.80670000E-07
    CONSTANT  9.80670000E-07
    CONSTANT  9.80670000E-07
    CONSTANT  9.80670000E-07
    CONSTANT  9.80670000E-07
    CONSTANT  9.80670000E-07
    CONSTANT  9.80670000E-07
    CONSTANT  9.80670000E-07
    CONSTANT  9.80670000E-07
    CONSTANT  9.80670000E-07
    CONSTANT  9.80670000E-07
    CONSTANT  9.80670000E-07
    CONSTANT  9.80670000E-07
    CONSTANT  9.80670000E-07
    CONSTANT  9.80670000E-07
    CONSTANT  9.80670000E-07
    CONSTANT  9.80670000E-07
    CONSTANT  9.80670000E-07
    CONSTANT  9.80670000E-07
    CONSTANT  9.80670000E-07
    CONSTANT  9.80670000E-07
    CONSTANT  9.80670000E-07
    CONSTANT  9.80670000E-07
  k33
    CONSTANT  1.00000000E-21
END griddata

