# File generated by Flopy version 3.8.0 on 05/07/2026 at 20:44:29.
BEGIN options
  SAVE_FLOWS
END options

BEGIN griddata
  icelltype
    CONSTANT  0
  k
    INTERNAL  FACTOR  1.0
         7.16217808       1.49683700       6.82816617       6.21756240       4.03126816       1.96738299       6.63161853       8.55857934       2.44447849       1.56707948
         2.22439371       9.52501463       3.54744344       2.28373551       5.73993736       1.56227452       6.00648453       5.76297252       1.25853734       9.63991155
         1.14563482       8.75049071       1.48318828       8.71426935       5.04842429       1.27671534       1.08194550       2.11022448       6.94999673       2.78960211
         7.82193543       5.92460227       2.57247541       8.25641181       6.75099737       7.53844260       7.95135689       8.73905609       1.56633751       2.65462981
         4.84754893       2.83463436       1.61156299       8.16293928       7.20481481       1.27519523       1.32642219       3.97488073       8.26370276       7.58014666
         4.03555751       1.19271542       2.74642802       3.37107202       1.08503018       5.56133369       1.45618039       8.99109950       5.21498873       5.92142062
         1.62693870       5.54513677       7.81291508       9.49447913       4.23532751       6.75459830       7.05632162       5.48548959       8.33371365       1.96188565
         4.68067694       8.91901262       9.95252432       8.40626826       9.98207876       4.27393488       4.93279401       4.86843045       6.51696375       6.83119298
         1.24841596       8.24281300       2.26625646       9.62853164       9.73689940       8.43679770       8.42486400       6.68631191       1.72331216       8.11274296
         6.61430778       8.27642075       3.80236821       9.24337214       8.55962326       1.78354277       6.75419050       2.92966882       4.49110593       6.76396050
END griddata

