# File generated by Flopy version 3.10.0.dev5 on 01/30/2026 at 12:53:41.
BEGIN options
END options

BEGIN packages
  DISV6  gwe-geotherm.disv  disv-gwe
  IC6  gwe-geotherm.ic  ic
  ADV6  gwe-geotherm.adv  adv
  CND6  gwe-geotherm.dsp  cnd
  EST6  gwe-geotherm.est  est
  ESL6  gwe-geotherm.src  esr-1
  SSM6  gwe-geotherm.ssm  ssm
  OC6  gwe-geotherm.oc  oc
  FMI6  gwe-geotherm.fmi  fmi
END packages

