# File generated by Flopy version 3.10.0.dev5 on 01/30/2026 at 12:54:48.
BEGIN options
  READASARRAYS
  PRINT_FLOWS
END options

BEGIN period  1
  recharge
    CONSTANT  2.73972603E-04
END period  1

