# File generated by Flopy version 3.10.0 on 05/09/2026 at 09:47:37.
BEGIN options
  SAVE_FLOWS
END options

BEGIN packages
  DIS6  sim_model_0525.dis  dis
  STO6  sim_model_0525.sto  sto
  NPF6  sim_model_0525.npf  npf
  IC6  sim_model_0525.ic  ic
  CHD6  sim_model_0525.chd  chd_0
  OC6  sim_model_0525.oc  oc
END packages

