# File generated by Flopy version 3.10.0.dev5 on 01/30/2026 at 12:54:51.
BEGIN options
  ZERO_ORDER_DECAY
END options

BEGIN griddata
  porosity
    CONSTANT       0.37000000
  decay
    CONSTANT      -0.00200000
END griddata

