# File generated by Flopy version 3.10.0.dev5 on 01/30/2026 at 12:54:51.
BEGIN options
  TIME_UNITS  days
END options

BEGIN dimensions
  NPER  2
END dimensions

BEGIN perioddata
     160.00000000  16       1.00000000
     680.00000000  84       1.00000000
END perioddata

