# File generated by Flopy version 3.10.0.dev5 on 01/30/2026 at 12:53:37.
BEGIN options
  SAVE_FLOWS
END options

BEGIN packages
  DIS6  gwe-bhe.dis  dis
  IC6  gwe-bhe.ic  ic
  ADV6  gwe-bhe.adv  adv
  CND6  gwe-bhe.cnd  cnd
  EST6  gwe-bhe.est  est
  SSM6  gwe-bhe.ssm  ssm
  ESL6  gwe-bhe.esl  esl_0
  OC6  gwe-bhe.oc  oc
  FMI6  gwe-bhe.fmi  fmi
END packages

