# File generated by Flopy version 3.8.0 on 05/07/2026 at 20:45:24.
BEGIN options
  SAVE_FLOWS
END options

BEGIN griddata
  icelltype
    CONSTANT  0
  k
    INTERNAL  FACTOR  1.0
         4.74241741       9.21146198       4.02641454       2.23427639       4.28128965       6.36819235       2.37604503       2.78765204       4.46811278       9.17935047
         2.12106384       5.08915891       9.58141113       6.68455278       7.31355368       5.92474209       3.93502432       9.47677766       3.09815763       2.16563660
         3.77105928       2.69457809       6.55779234       6.71315026       7.70942182       8.01789417       2.79857452       6.79225328       5.07032889       7.49715098
         2.41723417       5.60104359       4.58210970       8.42371432       6.32256616       3.17127561       4.54559607       2.67645048       6.46971004       6.34730046
         9.44375854       7.93661837       1.21463116       8.02903167       1.07222952       2.53718663       8.06187187       6.99522395       2.06677876       2.08348070
         5.61054492       1.55317339       7.33365821       6.25165680       2.20438480       5.08945798       7.97248839       3.42493317       9.77434006       8.60432848
         9.07721518       8.52408586       7.22535382       2.67462906       3.74052995       7.26343019       7.71590431       2.96486056       5.06985219       9.49570345
         8.81987438       3.33369012       2.79170429       3.48721146       1.88305130       4.85514054       2.89751962       1.89106479       5.65000564       6.24991400
         8.61637022       3.27522465       1.17113246       3.92114697       1.10644793       5.20365740       5.77490536       5.40971164       8.57584111       8.44526560
         1.81409663       3.14981796       4.60577635       1.60593308       3.40958910       2.95661561       4.67334590       4.97882560       3.07202608       5.04070240
END griddata

