# File generated by Flopy version 3.8.0 on 05/07/2026 at 20:46:11.
BEGIN options
  SAVE_FLOWS
END options

BEGIN griddata
  icelltype
    CONSTANT  0
  k
    INTERNAL  FACTOR  1.0
         2.54600881       3.75526520       1.07723840       7.76703485       7.69867023       3.24283246       4.70681656       2.49223358       2.63261629       3.10533373
         3.13555616       3.94733779       3.04671839       7.65677155       6.55294478       8.87410110       1.84446541       7.71982989       7.30892394       9.68488028
         9.79568008       1.79442548       8.10311261       1.18528987       5.60949948       6.08206012       9.70939993       9.43764034       1.93231239       3.47997662
         5.15275393       6.77719079       2.22419777       6.08323869       1.65380496       2.55492155       4.50763392       8.12737710       4.93928338       1.70796943
         8.40088479       4.22521177       3.79900406       1.34978242       3.39201881       9.24861499       1.42179651       6.19820304       7.75857188       7.66942640
         5.80504351       6.22807724       1.95552197       4.13149011       4.74465470       7.17191651       8.02694871       4.75900936       9.76337580       4.44513964
         4.21781891       4.35080637       2.55714705       2.41717874       2.19715326       5.84575365       7.52385976       9.99154078       2.78671227       8.30864557
         5.83757093       8.39328871       1.01464356       2.66445994       6.30993270       1.97665420       5.11838568       4.00134331       4.34540857       5.91915060
         6.83125995       1.62802057       2.52663597       5.76754038       2.48963577       2.39630805       1.13122494       2.88720150       2.56427515       1.79336482
         4.39784775       8.55060403       7.12565401       7.16026061       1.02243735       1.78052590       7.48094209       5.30097121       8.19486606       9.70745391
END griddata

