# File generated by Flopy version 3.10.0.dev5 on 01/30/2026 at 12:54:04.
BEGIN options
END options

BEGIN timing
  TDIS6  ex-gwf-u1gwfgwf-s2.tdis
END timing

BEGIN models
  gwf6  outer.nam  outer
  gwf6  inner.nam  inner
END models

BEGIN exchanges
  GWF6-GWF6  ex-gwf-u1gwfgwf-s2.gwfgwf  outer  inner
END exchanges

BEGIN solutiongroup  1
  ims6  ex-gwf-u1gwfgwf-s2.ims  outer  inner
END solutiongroup  1

