# File generated by Flopy version 3.10.0.dev5 on 01/30/2026 at 12:55:15.
BEGIN options
  PRINT_FLOWS
END options

BEGIN sources
  CHD-1  AUX  CONCENTRATION
END sources

