# File generated by Flopy version 3.8.0 on 05/07/2026 at 20:43:56.
BEGIN options
  SAVE_FLOWS
END options

BEGIN griddata
  icelltype
    CONSTANT  0
  k
    INTERNAL  FACTOR  1.0
         2.03549110       6.48159885       2.20051868       3.16530658       3.94425150       8.73223742       6.99481192       5.87045991       1.26112442       7.60373467
         4.55455017       8.21842407       3.28979013       1.51196443       8.79983777       2.98926096       4.64490503       3.84486824       1.68996430       8.58902225
         8.64045233       9.74318582       4.46839223       9.59039313       5.01182525       7.02752187       1.74250045       9.07388722       3.68203151       3.36074340
         1.04616594       5.88882264       5.28036730       6.72736310       9.80383721       9.17796482       9.19137768       5.72730104       1.93617055       2.62823136
         9.57736199       4.70757685       8.78515409       7.04959552       6.65907216       3.48002899       9.07072543       2.86202234       4.63964719       9.94215243
         7.62154373       5.00555271       6.04596852       4.70129940       7.54289193       4.59277197       7.03130648       7.34244047       6.48603884       5.86031018
         2.85473666       2.79245329       8.16164978       3.61299500       6.90366545       3.69655098       2.30030541       4.63561000       3.79242574       3.19058215
         6.29293638       3.20808928       7.72993551       7.48131983       7.25734780       1.92468501       9.49278185       5.53005670       9.09706257       2.78721896
         6.35004268       9.68867724       9.98828421       1.21751762       5.33173000       3.62280421       1.57348511       6.12661959       1.04574956       6.50149831
         8.83163329       8.95241318       9.58887535       7.65877438       2.66241662       4.91210489       8.97309546       3.29541652       4.98981425       6.55243278
END griddata

