# File generated by Flopy version 3.10.0.dev5 on 01/30/2026 at 12:55:13.
BEGIN options
  READASARRAYS
END options

BEGIN period  1
  surface
    INTERNAL  FACTOR  1.0
         3.56314421       3.56314421       3.56009650       3.56009650       3.56924057       3.58448076       3.58448076       3.58752871       3.58448076       3.58448076       3.66677737       3.80089068       3.80089068       4.03558874       4.21847057       4.21847057       4.45926476       4.59033012       4.59033012       4.60252190
         4.63909817       4.63909817       5.08715868       5.79125261       5.79125261       6.17835236       6.22407293       6.22407293       6.54106712       8.71735954       8.71735954      13.20100880      13.20100880      14.47813225      14.85303879      14.85303879      13.34426498      11.66480255      11.66480255      10.21089268
         9.00387383       9.00387383       7.82123899       7.31831455       7.31831455       7.13543272       7.03789616       7.03789616       6.36732960       6.58374023       6.58374023       6.75442934       6.54716349       6.54716349       6.15396833       6.06252718       6.06252718       6.00461483       6.32160950       6.32160950
         7.80904722       7.80904722       7.80904722       6.14482403       6.14482403       5.62056351       6.09300756       6.09300756       6.16920805       6.03204727       6.03204727       6.45267487       6.53192377       6.53192377       7.13543272       7.90048790       7.90048790       8.72650337       9.68358421       9.68358421
        10.41815853      11.53983307      11.53983307      11.98179722      11.87816429      11.87816429      12.18296719      12.87791729      12.87791729      13.39912987      13.66735649      13.66735649      13.67650032      13.67650032      13.62163544      13.59420300      13.59420300      13.61249161      13.65821266      13.65821266
        13.65821266      13.65821266      13.67954922      13.67954922      13.75270081      13.76184559      13.76184559      13.90815067      14.04531288      14.04531288      14.20380878      14.42021942      14.42021942      14.72807026      15.03287315      15.03287315      15.19137001      15.23709106      15.23709106      15.24013901
        15.31329155      15.31329155      15.57542133      15.87412930      15.87412930      15.84364796      15.17308140      15.17308140      13.86547852      12.14638996      12.14638996       9.64091110       9.64091110       7.54691696       6.25150490       6.25150490       6.17835236       6.16920805       6.16920805       5.84611750
         5.15421486       5.15421486       4.72444296       4.60861778       4.60861778       4.61166620       4.62385798       4.62385798       4.66348267       4.65129042       4.65129042       4.69396257       4.55680132       4.55680132       4.44097614       4.31295919       4.31295919       4.25199842       4.20627832       4.20627832
         4.16360569       4.16360569       3.22176528       3.22176528       3.22176528       3.22176528       3.14699255       3.14849259       3.14999263       3.14878079       3.14728079       3.14578080       3.14770448       3.15020449       3.15270450       3.15399264       3.15499261       3.15599258       3.15889222       3.16239220
         3.16589218       3.15230815       3.13180817       3.11130819       3.12565807       3.15765804       3.18965801       3.20287675       3.20437678       3.20587682       3.20766070       3.20966068       3.21166067       3.21444024       3.21794022       3.22144020       3.22494018       3.22844016       3.23194014       3.23226263
         3.22826266       3.22426270       3.22345566       3.22795565       3.23245565       3.23761086       3.24411083       3.25061081       3.25627203       3.25977201       3.26327199       3.26596153       3.26596153       3.26596153       3.26724624       3.27424628       3.28124632       3.28756886       3.28956892       3.29156898
         3.29431256       3.30481251       3.31531245       3.32598990       3.34098992       3.35598993       3.37098994       3.38301575       3.39501580       3.40701586       3.42797803       3.44947798       3.47097793       3.54306600       3.62106606       3.69906612       3.73681768       3.76731766       3.79781763       3.93982104
         4.10982105       4.27982106       4.37807382       4.45257378       4.52707375       4.55375258       4.56025256       4.56675253       4.53393907       4.48043907       4.42693907       4.40410250       4.40110250       4.39810251       4.38559664       4.36559665       4.34559666       4.32304100       4.29804106       4.27304113
         4.25915586       4.25815581       4.25715576       4.25594821       4.25444825       4.25294829       4.39019603       4.76669590       5.14319577       5.50757254       5.84607253       6.18457251       6.48757126       6.69507136       6.90257147       7.23527158       8.00427150       8.77327141       9.40773925       9.30873934
         9.20973943       9.11073952       9.16738707       9.23188715       9.29638724       9.01241739       8.69141739       8.37041739       8.50690486       8.72040488       8.93390489       9.20112942       9.48112946       9.76112951      10.09431972      10.44431962      10.79431952      10.89517728       9.64567772       8.39617761
         7.14667751       6.80250137       6.50400144       6.20550152       5.91242510       5.61992502       5.32742493       5.29169944       5.29919954       5.30669965       5.07223749       4.78023746       4.48823744       4.42039590       4.42339590       4.42639589       4.43295500       4.44095494       4.44895487       4.45297204
         4.45497207       4.45697209       4.45774055       4.45774055       4.45774055       4.45717281       4.45617284       4.45517287       4.46352785       4.48052784       4.49752784       4.43575519       4.28575521       4.13575523       4.03235838       3.99235839       3.95235841       3.91066805       3.86616803       3.82166801
         3.75538198       3.64438198       3.53338197       3.44866262       3.43166258       3.41466254       3.39499965       3.36649966       3.33799967       3.31142669       3.29342664       3.27542660       3.25762981       3.24112983       3.22462986       3.20987930       3.21337932       3.21687934       3.22010326       3.21660328
         3.21310330       3.20960332       3.20213767       3.19463768       3.18713770       3.14567572       3.10217568       3.05867563       3.05322839       3.05222838       3.05122837       3.06209103       3.07509106       3.08809109       3.08710329       3.08260330       3.07810330       3.06909563       3.05859561       3.04809559
         3.02528877       2.99728880       2.96928883       2.95701413       2.95301413       2.94901412       2.94501411       2.94101411       2.93701410       2.93776700       2.94226699       2.94676698       2.94922242       2.94972241       2.95022239       2.94956462       2.94756464       2.94556465       2.93090468       2.89840468
         2.86590468       2.84570099       2.84670100       2.84770101       2.84790345       2.84640341       2.84490337       2.84882331       2.86732330       2.88582330       2.60301566       2.60301566       2.60301566       2.60301566       3.32235040       3.30015041       3.27795041       3.26678986       3.26858986       3.27038985
         3.27053394       3.27053394       3.27007802       3.26887800       3.26767799       3.26748587       3.26748587       3.26748587       3.26748587       3.26748587       3.26611812       3.26431813       3.28599681       3.39099676       3.49599671       3.52961613       3.46841615       3.40721621       3.37306280       3.37066282
         3.36826283       3.36807072       3.36807072       3.36807072       3.36807072       3.36807072       3.36303127       3.35703125       3.35283053       3.35283053       3.35283053       3.33049067       3.30109069       3.28092383       3.29352381       3.30612379       3.31015813       3.31015813       3.31015813       3.31015813
         3.31015813       3.30332078       3.29192077       3.27571736       3.18391737       3.09211739       3.04802790       3.13982788       3.23162787       3.32480779       3.41960778       3.51440778       3.52199603       3.43019618       3.33839620       3.28882194       3.28882194       3.28882194       3.28330220       3.27730218
         3.23984406       3.15104408       3.06224411       3.04802789       3.13682787       3.22562784       3.31553179       3.40673184       3.49793189       3.50523212       3.41403207       3.32283202       3.27744554       3.28584554       3.29424554       3.29491794       3.29491794       3.29491794       3.29491794       3.29491794
         3.28836670       3.28056673       3.31576992       3.45136991       3.58696990       3.61953294       3.61953294       3.61953294       3.61953294       3.61953294       3.71457081       3.85437078       4.06445722       4.70705715       5.34965709       5.60684580       5.24204584       4.87724588       4.68024546       4.68024546
         4.68024546       4.66865413       4.65605419       4.64824136       4.64824136       4.64824136       4.68351745       4.72551751       4.75168363       4.74088356       4.73008348       4.72748998       4.72748998       4.81441392       5.20981392       5.60521392       5.73181495       4.95361497       4.17541500       3.62711223
         3.34871221       3.07031220       3.04802775       3.32642733       3.60482734       3.95995145       4.40515138       4.85035131       4.88598774       4.49298776       4.09998779       3.84360142       3.74760145       3.65160149       3.64391720       3.64391720       3.64391720       3.64391720       3.64391720       3.53859258
         3.41319255       3.32054005       3.30434003       3.28814001       3.28424961       3.30044963       3.31664965       3.45787138       3.74587141       4.03387143       4.05692477       3.94772480       3.83852483       3.77955449       3.77955449       3.77955449       3.70890190       3.63210187       3.50423897       3.29303897
         3.08183897       3.04802775       3.25922742       3.47042742       3.75559170       4.12759169       4.49959168       4.52936904       4.40756905       4.28576905       4.21999443       4.21999443       4.21999443       4.06654591       3.89974595       3.80885638       3.84185631       3.87485624       3.88013923       3.88013923
         3.86970321       3.83490324       3.80010327       3.79174650       3.79174650       3.79174650       3.79174650       3.79174650       3.77094412       3.74034412       3.71309917       3.70649916       3.69989916       3.69725764       3.69725764       3.69998210       3.74558215       3.79118220       3.81308295       3.59588288
         3.37868281       3.22275170       3.13875174       3.05475177       3.04802789      11.21628116      11.22348873      11.21224661      11.18289640      11.13632988      11.07396188      10.99768742      10.90982414      10.81304171      10.71028082      10.59285574      10.47614244      10.36368720      10.25890691      10.15315259
        10.04963746       9.96333953       9.89688091       9.85228092       9.83506224       9.84158052       9.87163770       9.92432052      10.01553052      10.14249647      10.28385814      10.43532033      10.59228094      10.67287107      10.75174176      10.82649656      10.89486408      10.97177643      11.05489655      11.12468956
        11.17903486       3.55609649       3.56935451       3.58233123       3.59463236       3.60588413       3.60563757       3.59390023       3.58113579       3.56773207       3.55409635       3.55453482       3.55514228       3.55590027       3.55678576       3.55752532       3.55809648       3.55872840       3.55940190       3.56009650
         3.56356944       3.56693687       3.57009645       3.57295219       3.57393824       3.57302463       3.57171821       3.57005867       3.56809643       3.56901678       3.56966610       3.57002464       3.57008152       3.56860244       3.56563234       3.56249403       3.55928288       3.37427124       3.37533470       3.37849276
         3.38364947       3.39064815       3.40716460       3.43269692       3.45858092       3.48403014       3.50827130       3.51667604       3.52288079       3.52669704       3.52800883       3.53491118       3.54719444       3.55635043       3.56210095       3.56427128       3.55515502       3.54266959       3.52719439       3.50919961
         3.48923202       3.46789832       3.44584672       3.42374726       3.40227142       3.39075410       3.38086288       3.37289830       3.36710234       3.36365113       3.36264953       3.36412796       3.36804150       1.61240745       1.61490664       1.61740666       1.61990669       1.62240672       1.62490675       1.62740678
         1.62719493       1.62669490       1.62619488       1.62569485       1.62519483       1.62469480       1.61894355       1.61194357       1.60494358       1.59794360       1.59094362       1.58394364       1.58797703       1.59647703       1.60497703       1.61347703       1.62197703       1.63047702       1.63836125       1.64586126
         1.65336127       1.66086127       1.66836128       1.67586129       1.67530562       1.66730560       1.65930559       1.65130558       1.64330557       1.63530555       1.62751738       1.62001737       1.61251736       1.60501736       1.59751735       1.59001734       1.58464680       1.58364678       1.58264677       1.58164676
         1.58064675       1.57964674       1.58165693       1.59365695       1.60565697       1.61765699       1.62965701       1.64165703       1.65054058       1.63954058       1.62854057       1.61754056       1.60654055       1.59554055       1.58499413       1.58549414       1.58599414       1.58649415       1.58699415       1.58749416
         1.58799416       1.58707909       1.58607910       1.58507911       1.58407912       1.58307912       1.58207913       1.58573945       1.59023944       1.59473944       1.59923943       1.60373942       1.60823941       1.60222155       1.59272156       1.58322157       1.57372158       1.56422159       1.55472160       1.55275664
         1.55475665       1.55675665       1.55875665       1.56075665       1.56275666       1.56531582       1.56831582       1.57131581       1.57431581       1.57731580       1.58031580       1.58678911       1.59728912       1.60778912       1.61828912       1.62878912       1.63928912       1.64593506       1.64593506       1.64593506
         1.64593506       3.56924057       4.46440905       4.54444957       4.06205495       3.99868478       4.67638775       3.22722781       3.04747763       4.90767457       3.04766099       3.19650732       3.47303617       3.52224272       3.45659209       3.51418272       4.49688904       4.02780477       4.78118774       3.13762785
         3.12226732       3.49751617       3.48091211       4.51312904       4.04236477       4.83358774       3.09282787       3.08514732       3.50975617       3.49307211       3.07042788       3.05922788       4.31359169       4.61406703       3.88987142       4.10357191       4.62775135       4.88552941       3.20951221       3.04741683
         3.46700778       3.52283603       3.45233187       3.50798116       3.09675176       3.04711140       4.40659169       4.58879191       3.96187143       4.09271296       4.73905133       4.90818320       3.13991221       3.06295323       3.49070778       3.52272218       3.47513188       3.51215126       3.07575176       3.05253139
         4.40570270       3.97204513       4.73285915       3.16464564       3.48288562       3.46750956       3.08321443       3.04700393       3.04649206       4.45309168       4.47664160       4.60880860       3.99787143       4.00406911       4.11331420       4.79470132       4.82856713       4.97851939       3.10511220       3.06082140
         3.50255778       3.51697478       3.52334876       3.48653188       3.50050911       3.52841358       3.06525177       3.05188817       3.16066742       3.04753875       3.04191519       3.09538788       3.04754210       3.11787904       3.04729930       3.06910383       4.72991497       4.66020869       4.18814568       4.13996615
         5.03768281       5.05413379       3.52491333       3.52425108       3.54560197       3.55400004       3.10434742       3.07170789       3.04591763       3.04486263       3.04553030       3.16497238       3.04428164       3.08331302       3.29288962      11.37943395      10.09549775       4.31777465       3.90399160       4.62761979
         3.23049376       3.46046430       3.44593949       3.10308239       3.23970846       3.18743897       3.04721321       3.10664410       3.03784600       3.28856962      10.49533779       4.15825827       4.31129872       3.78564221       3.90369848       4.43428458       4.57205685       3.28528876       3.36127900       3.41621400
         3.44275183       3.40332349       3.42831608       3.11961536       3.14254344       3.22496556       3.07067364       3.12242232       3.05754960       3.33467210       3.23478790      10.12061618      10.46930802       3.25875875      10.76417188       4.81566212       4.22498522       4.96082867       3.52529955       3.53145469
         3.13463897       3.06743914       3.04666269       3.08444410       3.05618964       3.03096437       9.75403390       9.99552696       9.35774255       9.02092766       9.21070360       5.31677496       6.04381161       3.49697613       3.56082537      13.65821266       3.04738023       3.15017547       3.03993371       3.09097649
         3.20031953       3.26576482      11.29364143       9.97799876       9.45577744       8.55357892      13.65821266       3.22330078       3.12172235       3.24606579      11.02520619       8.86355929      13.65821266       5.41228582       5.76916814       4.36598783       3.89433262       4.70750332       3.09030057       3.50560707
         3.48978847       3.06078274       3.26637048      10.61931957       3.29624002       3.85469453       3.56667967       4.06340751       3.62403626       3.32762746       3.31795728       3.22182361       3.24097723       3.04521432       3.01285957       3.04469788       3.00640410       8.83044864       7.57043193       7.97241342
         4.55954514       4.04598029       4.94039580       3.52242648       3.53904333      11.63932909       9.98249225       8.38446120       7.99501418       9.55057581       3.69724291       4.01975035       3.09698789       3.04247972       3.10678001       3.32487305       3.16442886       4.62444375       4.09083583       4.71971836
         3.49033639       3.47158164       4.89779208       3.37789270       3.58891777      13.65821266       4.79556137       5.86258829       5.36550730       3.04673662       3.04609110       3.04649049       3.20349931       3.35856353       3.14501681       3.03042351       4.94018495       4.32207775       5.41164600       3.52908970
         3.65504472      12.26274344       3.58085384       3.71605365       3.19142313       3.02847879       3.04680882       3.40796750       3.52330582       3.19936629       3.24786080       4.60344209       4.05339929       4.48046948       3.43705320       3.41784999       3.58028951      13.65821266       5.86091637       5.66955169
         3.04480090       3.04318756       3.04516795       3.14791461       4.61512607       4.04878630       5.02868433       3.52328772       3.58410298       3.79899037       3.06551775       4.87523657       4.23881500       4.82050364       3.52462947       3.50235946      13.65821266       3.04224613       3.03935545       3.57118082
         3.38169869       3.41132683       3.54876589       3.35401306       3.34335206       3.60007188       3.55312372       3.37966713       3.35325482       3.47969116       2.60301566       3.06936383       3.56129434       3.56237160       3.57855474       3.55640479       3.57301725       3.61271587       3.55694310       3.55252243
         9.64451535      10.43921173      10.74209204      11.23666994      11.32814728      10.21669497      10.80675609       5.40751392       5.89472651       3.44349673       3.49223298       3.98048349       3.67317810       4.11356700       3.58558292       3.32641339       3.31556682       3.21022132       6.51631023       3.37355057
         5.01032891       4.39826071       5.44570467       3.53018294       3.64546968       9.75796893      11.85315294       3.04484452       3.63101563       6.27730081       6.25274508       3.04134102       4.00861177       3.13635631       3.04249735       3.03973227       3.57286934       3.57138563       3.57106339       3.37288154
         3.40609687       3.45296381       3.41834799       3.39579225       3.38831298       3.55738542       3.49684080       3.51646937       3.35264395       3.34879657       3.58523896       3.58464371       3.57107312       3.54259248       3.37451822       3.41454871       3.36202002       3.53362911       3.50762197       1.64593506
         1.64593506       3.55851986       3.55980851       3.56437255       3.56932961       3.55967241       3.56639336       3.57405117       3.57617894       3.55789007       3.55730552       3.55551307       3.57225462       3.56529360       3.56866981       3.59475817       3.61207475       3.56330680       3.55367595       3.56109502
         9.77838811       9.59700860       9.67283667      10.16437980      10.28201583      10.53130140      10.78487110      10.63617894      10.93648954      10.82733598      11.40711458      11.27028660      11.10113089      11.16596127      11.21324069      11.32610286      10.37649538       9.94168415      10.91563932      10.65937067
         5.02381374       4.38240694       5.27439184       3.52927614       3.60795541      10.08813981       9.73915236       3.73155813       6.71886387       6.18576207       3.94961091       3.03432437       3.04279796       3.57297531       3.36518958       3.43296491       3.48580227       3.49635714       3.38813204       3.37720115
         3.39780715       3.35062467       3.35701795       3.56914700       3.57256020       3.54577183       3.53437941       3.36884993       3.44590337       1.64593506       1.64593506       3.55725935       3.55870003       3.57095857       3.56873445       3.57027522       3.56647378       3.55886572       3.57014489       3.57644104
         3.56106357       3.57888778       3.59358129       3.62202880       3.55463655       9.88857125      10.04206731      10.64062281      10.68886394      10.87212694      11.01732289      10.49398364      11.31008027      10.98447762      11.33419791      10.51868461      10.12254184      11.01901403       5.12865726       4.42650791
         5.17348602       3.52970623       3.58912025       9.96021600       9.70970931       3.03745981       3.46052325       3.52630035       3.51253954       3.51103885       3.44521472       3.50082669       3.38900587       3.39186388       3.56998665       3.55613722       3.58363441       3.56283277       3.56227655       3.56688501
         3.56818054       3.57720639      10.19563810      10.03450007      10.54846517      10.95350678      10.80158433      10.97419510      11.11680696      10.31125236       5.54129512       4.74416703       5.83619147       3.53783911       3.74988373       3.53999904       3.51103250       3.53959481       3.46668887       3.40699998
         3.56077457       3.59008371       3.56075321       3.56755072      10.04728842      10.31065616      10.96417884      11.05566169       3.51319787       9.47151140       3.49913573       4.06466168       3.66550415       4.34478004       3.32568360       3.42570126       3.41287714       3.13180345       8.94154623       7.28080498
         8.74537540       4.66416724       4.05812920       4.21825150       3.38275513       3.36177831       2.60301566       6.72019950       3.45804507       3.45422238       3.72267784       7.07783009       3.18883330       3.03014013       3.55944807      13.33450962       3.57620337       3.35468394       3.42622426       3.40225391
         3.33346901       3.33003566       3.62217740       3.61815871       3.56629104       3.34215839       3.43315004       3.56484643       3.55919870       3.57172841       3.59153375       3.55250701       9.61229575      10.60827091      10.52862947      11.50640843      11.15003632      11.55733085      10.42771494      11.10236241
         9.43607457       3.03897794       3.47688924       3.39248446       3.56750309       3.57738962      10.85548100       3.51539480       3.40548010       3.55622688       3.58614980       3.55858326       3.56656299      10.14372937      10.48268014      10.85620063      11.01038343       3.49650688       3.32539821       4.92026452
         4.24194605       5.04602258       4.62260088       3.48360998       3.56912360       3.46001367       2.60301566       6.01119338      11.49028412       3.45520888       3.40247816       3.59274857       3.35756378       3.56703428       3.56084619       3.57377063       3.57524957       3.55403174      10.68874994      10.35326441
        10.56478675       3.03780096       3.40621118       3.56446246       3.58780662      10.89121377       3.48003822       3.42382116       3.55787682       3.56474675      10.23676012      10.72429496      10.92408474       3.19738102       5.21653481       4.45482212       3.52968008       3.42847257      10.51343090       3.03232809
         3.41048689       3.56523446      10.74450367       3.48746715       3.41783297       3.56605801       3.56416324      10.39891846      10.79220582      10.86822377       3.19738102       3.19738102       3.51742411       3.09989444       3.10181814       3.11366501       3.03203567       3.11613549       3.17520614       3.18507657
         3.17885369       3.18649733       3.21015848       3.22415841       3.23804627       3.25953986       3.31851571       3.36651594       3.65740672       3.53152247       3.86527580       4.49957375       4.40557381       4.46407566       4.49921591       4.30298909       4.26906385       4.23472389       4.28158773       4.22826637
         4.98280118       7.51071959      11.00775919       6.51901219       1.88767499       1.84595167       1.85628304       1.88548333       1.87388016       1.91188012       1.90672326       1.94710115       1.96014945       1.94244800       1.98024444       2.06207275       2.01319326       2.04050955       2.05863013       2.11350927
         2.21749397       2.46772343       2.43583920       2.38339413       2.40253305       2.39796628       2.39567814       4.52114999       4.50378201       6.56611036       2.37931430       3.11216616       3.07499531       3.04657675       3.02989011       3.07707638       3.45268176       3.34133054       3.20340074       4.09568818
         3.17134849       3.36342809      11.83614848       3.00912103       3.79020921       3.35692456       3.06936383       3.57472126       3.55390087       3.52546287       1.64593506       1.64593506       3.55637127       3.57632444       3.57153965       9.37310489      10.89798458      11.41306741       3.57974820       1.64593506
         1.64593506       3.58191222       3.56147595       3.64276008       9.95726690       9.74060394       5.40127675       4.67663124       5.97206272       3.53722113       3.78049501       6.63811581       7.46811623       8.63116695       3.09547350       3.77347728       4.00430216       3.52604019       3.36335122       3.35304649
         3.19155161       6.95738305       8.53543781       2.60301566       3.43778489       3.21537557       3.03375664       6.83210441       3.57274368       3.36675797       3.25780383       3.27180375       3.39279712       3.19918059       3.28161461       3.34242303       3.33557767       3.28901656       3.29437794       3.61687451
         3.61476758       3.56363309       3.43551572       3.34442794       3.30501706       3.30762057       3.40138248       3.31940534       3.55978015       3.19681814       3.16515220       3.56673260       3.11142287       3.60523416       3.55220194       3.55184424       3.33972192       9.58960601      10.66271912      11.38798534
        11.22283858      11.46211913      10.29638630      10.94943985       9.57565883       3.55749130       3.56652850       3.47498630       3.05549613       4.58313957       3.46387062       5.44885793       6.01074861      10.09225926       3.55914440       3.04944841       5.68056402       5.45824972       4.79394599       4.56858060
         3.54598998       3.55362199       3.48668217      10.60871061       3.19738102       3.32844639       2.01647014       3.09689444       3.11728952       3.12028952       2.01245135       3.10681816       3.12321323       3.11821321       1.99939220       3.12761416       3.12804785       1.96146841       3.05421413       3.08661420
         1.99481176       3.16967226       3.18166871       3.11821407       2.05523855       3.19070261       3.18670264       2.04082824       3.20308527       3.19608531       2.04318154       3.17085375       3.19442358       3.20242351       2.03562971       3.21121753       3.19836655       2.06283515       3.23187869       3.22421748
         2.09830596       3.22908722       3.24016084       3.23887865       2.07297437       3.25927878       3.25527866       2.05446416       3.28053974       3.28927225       3.26827237       3.32725914       2.07720127       3.35278498       3.37678509       2.11440288       3.41356722       3.51406870       3.55072670       3.70672683