# File generated by Flopy version 3.10.0.dev5 on 01/30/2026 at 12:55:14.
BEGIN options
  BUDGET  FILEOUT  flow.cbc
  HEAD  FILEOUT  flow.hds
END options

BEGIN period  1
  SAVE  HEAD  ALL
  SAVE  BUDGET  ALL
  PRINT  BUDGET  ALL
END period  1

