# File generated by Flopy version 3.10.0.dev5 on 01/30/2026 at 12:55:04.
BEGIN options
  TIME_UNITS  seconds
END options

BEGIN dimensions
  NPER  600
END dimensions

BEGIN perioddata
  5.25600000E+05  6       1.00000000
  5.25600000E+05  6       1.00000000
  5.25600000E+05  6       1.00000000
  5.25600000E+05  6       1.00000000
  5.25600000E+05  6       1.00000000
  5.25600000E+05  6       1.00000000
  5.25600000E+05  6       1.00000000
  5.25600000E+05  6       1.00000000
  5.25600000E+05  6       1.00000000
  5.25600000E+05  6       1.00000000
  5.25600000E+05  6       1.00000000
  5.25600000E+05  6       1.00000000
  5.25600000E+05  6       1.00000000
  5.25600000E+05  6       1.00000000
  5.25600000E+05  6       1.00000000
  5.25600000E+05  6       1.00000000
  5.25600000E+05  6       1.00000000
  5.25600000E+05  6       1.00000000
  5.25600000E+05  6       1.00000000
  5.25600000E+05  6       1.00000000
  5.25600000E+05  6       1.00000000
  5.25600000E+05  6       1.00000000
  5.25600000E+05  6       1.00000000
  5.25600000E+05  6       1.00000000
  5.25600000E+05  6       1.00000000
  5.25600000E+05  6       1.00000000
  5.25600000E+05  6       1.00000000
  5.25600000E+05  6       1.00000000
  5.25600000E+05  6       1.00000000
  5.25600000E+05  6       1.00000000
  5.25600000E+05  6       1.00000000
  5.25600000E+05  6       1.00000000
  5.25600000E+05  6       1.00000000
  5.25600000E+05  6       1.00000000
  5.25600000E+05  6       1.00000000
  5.25600000E+05  6       1.00000000
  5.25600000E+05  6       1.00000000
  5.25600000E+05  6       1.00000000
  5.25600000E+05  6       1.00000000
  5.25600000E+05  6       1.00000000
  5.25600000E+05  6       1.00000000
  5.25600000E+05  6       1.00000000
  5.25600000E+05  6       1.00000000
  5.25600000E+05  6       1.00000000
  5.25600000E+05  6       1.00000000
  5.25600000E+05  6       1.00000000
  5.25600000E+05  6       1.00000000
  5.25600000E+05  6       1.00000000
  5.25600000E+05  6       1.00000000
  5.25600000E+05  6       1.00000000
  5.25600000E+05  6       1.00000000
  5.25600000E+05  6       1.00000000
  5.25600000E+05  6       1.00000000
  5.25600000E+05  6       1.00000000
  5.25600000E+05  6       1.00000000
  5.25600000E+05  6       1.00000000
  5.25600000E+05  6       1.00000000
  5.25600000E+05  6       1.00000000
  5.25600000E+05  6       1.00000000
  5.25600000E+05  6       1.00000000
  5.25600000E+05  6       1.00000000
  5.25600000E+05  6       1.00000000
  5.25600000E+05  6       1.00000000
  5.25600000E+05  6       1.00000000
  5.25600000E+05  6       1.00000000
  5.25600000E+05  6       1.00000000
  5.25600000E+05  6       1.00000000
  5.25600000E+05  6       1.00000000
  5.25600000E+05  6       1.00000000
  5.25600000E+05  6       1.00000000
  5.25600000E+05  6       1.00000000
  5.25600000E+05  6       1.00000000
  5.25600000E+05  6       1.00000000
  5.25600000E+05  6       1.00000000
  5.25600000E+05  6       1.00000000
  5.25600000E+05  6       1.00000000
  5.25600000E+05  6       1.00000000
  5.25600000E+05  6       1.00000000
  5.25600000E+05  6       1.00000000
  5.25600000E+05  6       1.00000000
  5.25600000E+05  6       1.00000000
  5.25600000E+05  6       1.00000000
  5.25600000E+05  6       1.00000000
  5.25600000E+05  6       1.00000000
  5.25600000E+05  6       1.00000000
  5.25600000E+05  6       1.00000000
  5.25600000E+05  6       1.00000000
  5.25600000E+05  6       1.00000000
  5.25600000E+05  6       1.00000000
  5.25600000E+05  6       1.00000000
  5.25600000E+05  6       1.00000000
  5.25600000E+05  6       1.00000000
  5.25600000E+05  6       1.00000000
  5.25600000E+05  6       1.00000000
  5.25600000E+05  6       1.00000000
  5.25600000E+05  6       1.00000000
  5.25600000E+05  6       1.00000000
  5.25600000E+05  6       1.00000000
  5.25600000E+05  6       1.00000000
  5.25600000E+05  6       1.00000000
  5.25600000E+05  6       1.00000000
  5.25600000E+05  6       1.00000000
  5.25600000E+05  6       1.00000000
  5.25600000E+05  6       1.00000000
  5.25600000E+05  6       1.00000000
  5.25600000E+05  6       1.00000000
  5.25600000E+05  6       1.00000000
  5.25600000E+05  6       1.00000000
  5.25600000E+05  6       1.00000000
  5.25600000E+05  6       1.00000000
  5.25600000E+05  6       1.00000000
  5.25600000E+05  6       1.00000000
  5.25600000E+05  6       1.00000000
  5.25600000E+05  6       1.00000000
  5.25600000E+05  6       1.00000000
  5.25600000E+05  6       1.00000000
  5.25600000E+05  6       1.00000000
  5.25600000E+05  6       1.00000000
  5.25600000E+05  6       1.00000000
  5.25600000E+05  6       1.00000000
  5.25600000E+05  6       1.00000000
  5.25600000E+05  6       1.00000000
  5.25600000E+05  6       1.00000000
  5.25600000E+05  6       1.00000000
  5.25600000E+05  6       1.00000000
  5.25600000E+05  6       1.00000000
  5.25600000E+05  6       1.00000000
  5.25600000E+05  6       1.00000000
  5.25600000E+05  6       1.00000000
  5.25600000E+05  6       1.00000000
  5.25600000E+05  6       1.00000000
  5.25600000E+05  6       1.00000000
  5.25600000E+05  6       1.00000000
  5.25600000E+05  6       1.00000000
  5.25600000E+05  6       1.00000000
  5.25600000E+05  6       1.00000000
  5.25600000E+05  6       1.00000000
  5.25600000E+05  6       1.00000000
  5.25600000E+05  6       1.00000000
  5.25600000E+05  6       1.00000000
  5.25600000E+05  6       1.00000000
  5.25600000E+05  6       1.00000000
  5.25600000E+05  6       1.00000000
  5.25600000E+05  6       1.00000000
  5.25600000E+05  6       1.00000000
  5.25600000E+05  6       1.00000000
  5.25600000E+05  6       1.00000000
  5.25600000E+05  6       1.00000000
  5.25600000E+05  6       1.00000000
  5.25600000E+05  6       1.00000000
  5.25600000E+05  6       1.00000000
  5.25600000E+05  6       1.00000000
  5.25600000E+05  6       1.00000000
  5.25600000E+05  6       1.00000000
  5.25600000E+05  6       1.00000000
  5.25600000E+05  6       1.00000000
  5.25600000E+05  6       1.00000000
  5.25600000E+05  6       1.00000000
  5.25600000E+05  6       1.00000000
  5.25600000E+05  6       1.00000000
  5.25600000E+05  6       1.00000000
  5.25600000E+05  6       1.00000000
  5.25600000E+05  6       1.00000000
  5.25600000E+05  6       1.00000000
  5.25600000E+05  6       1.00000000
  5.25600000E+05  6       1.00000000
  5.25600000E+05  6       1.00000000
  5.25600000E+05  6       1.00000000
  5.25600000E+05  6       1.00000000
  5.25600000E+05  6       1.00000000
  5.25600000E+05  6       1.00000000
  5.25600000E+05  6       1.00000000
  5.25600000E+05  6       1.00000000
  5.25600000E+05  6       1.00000000
  5.25600000E+05  6       1.00000000
  5.25600000E+05  6       1.00000000
  5.25600000E+05  6       1.00000000
  5.25600000E+05  6       1.00000000
  5.25600000E+05  6       1.00000000
  5.25600000E+05  6       1.00000000
  5.25600000E+05  6       1.00000000
  5.25600000E+05  6       1.00000000
  5.25600000E+05  6       1.00000000
  5.25600000E+05  6       1.00000000
  5.25600000E+05  6       1.00000000
  5.25600000E+05  6       1.00000000
  5.25600000E+05  6       1.00000000
  5.25600000E+05  6       1.00000000
  5.25600000E+05  6       1.00000000
  5.25600000E+05  6       1.00000000
  5.25600000E+05  6       1.00000000
  5.25600000E+05  6       1.00000000
  5.25600000E+05  6       1.00000000
  5.25600000E+05  6       1.00000000
  5.25600000E+05  6       1.00000000
  5.25600000E+05  6       1.00000000
  5.25600000E+05  6       1.00000000
  5.25600000E+05  6       1.00000000
  5.25600000E+05  6       1.00000000
  5.25600000E+05  6       1.00000000
  5.25600000E+05  6       1.00000000
  5.25600000E+05  6       1.00000000
  5.25600000E+05  6       1.00000000
  5.25600000E+05  6       1.00000000
  5.25600000E+05  6       1.00000000
  5.25600000E+05  6       1.00000000
  5.25600000E+05  6       1.00000000
  5.25600000E+05  6       1.00000000
  5.25600000E+05  6       1.00000000
  5.25600000E+05  6       1.00000000
  5.25600000E+05  6       1.00000000
  5.25600000E+05  6       1.00000000
  5.25600000E+05  6       1.00000000
  5.25600000E+05  6       1.00000000
  5.25600000E+05  6       1.00000000
  5.25600000E+05  6       1.00000000
  5.25600000E+05  6       1.00000000
  5.25600000E+05  6       1.00000000
  5.25600000E+05  6       1.00000000
  5.25600000E+05  6       1.00000000
  5.25600000E+05  6       1.00000000
  5.25600000E+05  6       1.00000000
  5.25600000E+05  6       1.00000000
  5.25600000E+05  6       1.00000000
  5.25600000E+05  6       1.00000000
  5.25600000E+05  6       1.00000000
  5.25600000E+05  6       1.00000000
  5.25600000E+05  6       1.00000000
  5.25600000E+05  6       1.00000000
  5.25600000E+05  6       1.00000000
  5.25600000E+05  6       1.00000000
  5.25600000E+05  6       1.00000000
  5.25600000E+05  6       1.00000000
  5.25600000E+05  6       1.00000000
  5.25600000E+05  6       1.00000000
  5.25600000E+05  6       1.00000000
  5.25600000E+05  6       1.00000000
  5.25600000E+05  6       1.00000000
  5.25600000E+05  6       1.00000000
  5.25600000E+05  6       1.00000000
  5.25600000E+05  6       1.00000000
  5.25600000E+05  6       1.00000000
  5.25600000E+05  6       1.00000000
  5.25600000E+05  6       1.00000000
  5.25600000E+05  6       1.00000000
  5.25600000E+05  6       1.00000000
  5.25600000E+05  6       1.00000000
  5.25600000E+05  6       1.00000000
  5.25600000E+05  6       1.00000000
  5.25600000E+05  6       1.00000000
  5.25600000E+05  6       1.00000000
  5.25600000E+05  6       1.00000000
  5.25600000E+05  6       1.00000000
  5.25600000E+05  6       1.00000000
  5.25600000E+05  6       1.00000000
  5.25600000E+05  6       1.00000000
  5.25600000E+05  6       1.00000000
  5.25600000E+05  6       1.00000000
  5.25600000E+05  6       1.00000000
  5.25600000E+05  6       1.00000000
  5.25600000E+05  6       1.00000000
  5.25600000E+05  6       1.00000000
  5.25600000E+05  6       1.00000000
  5.25600000E+05  6       1.00000000
  5.25600000E+05  6       1.00000000
  5.25600000E+05  6       1.00000000
  5.25600000E+05  6       1.00000000
  5.25600000E+05  6       1.00000000
  5.25600000E+05  6       1.00000000
  5.25600000E+05  6       1.00000000
  5.25600000E+05  6       1.00000000
  5.25600000E+05  6       1.00000000
  5.25600000E+05  6       1.00000000
  5.25600000E+05  6       1.00000000
  5.25600000E+05  6       1.00000000
  5.25600000E+05  6       1.00000000
  5.25600000E+05  6       1.00000000
  5.25600000E+05  6       1.00000000
  5.25600000E+05  6       1.00000000
  5.25600000E+05  6       1.00000000
  5.25600000E+05  6       1.00000000
  5.25600000E+05  6       1.00000000
  5.25600000E+05  6       1.00000000
  5.25600000E+05  6       1.00000000
  5.25600000E+05  6       1.00000000
  5.25600000E+05  6       1.00000000
  5.25600000E+05  6       1.00000000
  5.25600000E+05  6       1.00000000
  5.25600000E+05  6       1.00000000
  5.25600000E+05  6       1.00000000
  5.25600000E+05  6       1.00000000
  5.25600000E+05  6       1.00000000
  5.25600000E+05  6       1.00000000
  5.25600000E+05  6       1.00000000
  5.25600000E+05  6       1.00000000
  5.25600000E+05  6       1.00000000
  5.25600000E+05  6       1.00000000
  5.25600000E+05  6       1.00000000
  5.25600000E+05  6       1.00000000
  5.25600000E+05  6       1.00000000
  5.25600000E+05  6       1.00000000
  5.25600000E+05  6       1.00000000
  5.25600000E+05  6       1.00000000
  5.25600000E+05  6       1.00000000
  5.25600000E+05  6       1.00000000
  5.25600000E+05  6       1.00000000
  5.25600000E+05  6       1.00000000
  5.25600000E+05  6       1.00000000
  5.25600000E+05  6       1.00000000
  5.25600000E+05  6       1.00000000
  5.25600000E+05  6       1.00000000
  5.25600000E+05  6       1.00000000
  5.25600000E+05  6       1.00000000
  5.25600000E+05  6       1.00000000
  5.25600000E+05  6       1.00000000
  5.25600000E+05  6       1.00000000
  5.25600000E+05  6       1.00000000
  5.25600000E+05  6       1.00000000
  5.25600000E+05  6       1.00000000
  5.25600000E+05  6       1.00000000
  5.25600000E+05  6       1.00000000
  5.25600000E+05  6       1.00000000
  5.25600000E+05  6       1.00000000
  5.25600000E+05  6       1.00000000
  5.25600000E+05  6       1.00000000
  5.25600000E+05  6       1.00000000
  5.25600000E+05  6       1.00000000
  5.25600000E+05  6       1.00000000
  5.25600000E+05  6       1.00000000
  5.25600000E+05  6       1.00000000
  5.25600000E+05  6       1.00000000
  5.25600000E+05  6       1.00000000
  5.25600000E+05  6       1.00000000
  5.25600000E+05  6       1.00000000
  5.25600000E+05  6       1.00000000
  5.25600000E+05  6       1.00000000
  5.25600000E+05  6       1.00000000
  5.25600000E+05  6       1.00000000
  5.25600000E+05  6       1.00000000
  5.25600000E+05  6       1.00000000
  5.25600000E+05  6       1.00000000
  5.25600000E+05  6       1.00000000
  5.25600000E+05  6       1.00000000
  5.25600000E+05  6       1.00000000
  5.25600000E+05  6       1.00000000
  5.25600000E+05  6       1.00000000
  5.25600000E+05  6       1.00000000
  5.25600000E+05  6       1.00000000
  5.25600000E+05  6       1.00000000
  5.25600000E+05  6       1.00000000
  5.25600000E+05  6       1.00000000
  5.25600000E+05  6       1.00000000
  5.25600000E+05  6       1.00000000
  5.25600000E+05  6       1.00000000
  5.25600000E+05  6       1.00000000
  5.25600000E+05  6       1.00000000
  5.25600000E+05  6       1.00000000
  5.25600000E+05  6       1.00000000
  5.25600000E+05  6       1.00000000
  5.25600000E+05  6       1.00000000
  5.25600000E+05  6       1.00000000
  5.25600000E+05  6       1.00000000
  5.25600000E+05  6       1.00000000
  5.25600000E+05  6       1.00000000
  5.25600000E+05  6       1.00000000
  5.25600000E+05  6       1.00000000
  5.25600000E+05  6       1.00000000
  5.25600000E+05  6       1.00000000
  5.25600000E+05  6       1.00000000
  5.25600000E+05  6       1.00000000
  5.25600000E+05  6       1.00000000
  5.25600000E+05  6       1.00000000
  5.25600000E+05  6       1.00000000
  5.25600000E+05  6       1.00000000
  5.25600000E+05  6       1.00000000
  5.25600000E+05  6       1.00000000
  5.25600000E+05  6       1.00000000
  5.25600000E+05  6       1.00000000
  5.25600000E+05  6       1.00000000
  5.25600000E+05  6       1.00000000
  5.25600000E+05  6       1.00000000
  5.25600000E+05  6       1.00000000
  5.25600000E+05  6       1.00000000
  5.25600000E+05  6       1.00000000
  5.25600000E+05  6       1.00000000
  5.25600000E+05  6       1.00000000
  5.25600000E+05  6       1.00000000
  5.25600000E+05  6       1.00000000
  5.25600000E+05  6       1.00000000
  5.25600000E+05  6       1.00000000
  5.25600000E+05  6       1.00000000
  5.25600000E+05  6       1.00000000
  5.25600000E+05  6       1.00000000
  5.25600000E+05  6       1.00000000
  5.25600000E+05  6       1.00000000
  5.25600000E+05  6       1.00000000
  5.25600000E+05  6       1.00000000
  5.25600000E+05  6       1.00000000
  5.25600000E+05  6       1.00000000
  5.25600000E+05  6       1.00000000
  5.25600000E+05  6       1.00000000
  5.25600000E+05  6       1.00000000
  5.25600000E+05  6       1.00000000
  5.25600000E+05  6       1.00000000
  5.25600000E+05  6       1.00000000
  5.25600000E+05  6       1.00000000
  5.25600000E+05  6       1.00000000
  5.25600000E+05  6       1.00000000
  5.25600000E+05  6       1.00000000
  5.25600000E+05  6       1.00000000
  5.25600000E+05  6       1.00000000
  5.25600000E+05  6       1.00000000
  5.25600000E+05  6       1.00000000
  5.25600000E+05  6       1.00000000
  5.25600000E+05  6       1.00000000
  5.25600000E+05  6       1.00000000
  5.25600000E+05  6       1.00000000
  5.25600000E+05  6       1.00000000
  5.25600000E+05  6       1.00000000
  5.25600000E+05  6       1.00000000
  5.25600000E+05  6       1.00000000
  5.25600000E+05  6       1.00000000
  5.25600000E+05  6       1.00000000
  5.25600000E+05  6       1.00000000
  5.25600000E+05  6       1.00000000
  5.25600000E+05  6       1.00000000
  5.25600000E+05  6       1.00000000
  5.25600000E+05  6       1.00000000
  5.25600000E+05  6       1.00000000
  5.25600000E+05  6       1.00000000
  5.25600000E+05  6       1.00000000
  5.25600000E+05  6       1.00000000
  5.25600000E+05  6       1.00000000
  5.25600000E+05  6       1.00000000
  5.25600000E+05  6       1.00000000
  5.25600000E+05  6       1.00000000
  5.25600000E+05  6       1.00000000
  5.25600000E+05  6       1.00000000
  5.25600000E+05  6       1.00000000
  5.25600000E+05  6       1.00000000
  5.25600000E+05  6       1.00000000
  5.25600000E+05  6       1.00000000
  5.25600000E+05  6       1.00000000
  5.25600000E+05  6       1.00000000
  5.25600000E+05  6       1.00000000
  5.25600000E+05  6       1.00000000
  5.25600000E+05  6       1.00000000
  5.25600000E+05  6       1.00000000
  5.25600000E+05  6       1.00000000
  5.25600000E+05  6       1.00000000
  5.25600000E+05  6       1.00000000
  5.25600000E+05  6       1.00000000
  5.25600000E+05  6       1.00000000
  5.25600000E+05  6       1.00000000
  5.25600000E+05  6       1.00000000
  5.25600000E+05  6       1.00000000
  5.25600000E+05  6       1.00000000
  5.25600000E+05  6       1.00000000
  5.25600000E+05  6       1.00000000
  5.25600000E+05  6       1.00000000
  5.25600000E+05  6       1.00000000
  5.25600000E+05  6       1.00000000
  5.25600000E+05  6       1.00000000
  5.25600000E+05  6       1.00000000
  5.25600000E+05  6       1.00000000
  5.25600000E+05  6       1.00000000
  5.25600000E+05  6       1.00000000
  5.25600000E+05  6       1.00000000
  5.25600000E+05  6       1.00000000
  5.25600000E+05  6       1.00000000
  5.25600000E+05  6       1.00000000
  5.25600000E+05  6       1.00000000
  5.25600000E+05  6       1.00000000
  5.25600000E+05  6       1.00000000
  5.25600000E+05  6       1.00000000
  5.25600000E+05  6       1.00000000
  5.25600000E+05  6       1.00000000
  5.25600000E+05  6       1.00000000
  5.25600000E+05  6       1.00000000
  5.25600000E+05  6       1.00000000
  5.25600000E+05  6       1.00000000
  5.25600000E+05  6       1.00000000
  5.25600000E+05  6       1.00000000
  5.25600000E+05  6       1.00000000
  5.25600000E+05  6       1.00000000
  5.25600000E+05  6       1.00000000
  5.25600000E+05  6       1.00000000
  5.25600000E+05  6       1.00000000
  5.25600000E+05  6       1.00000000
  5.25600000E+05  6       1.00000000
  5.25600000E+05  6       1.00000000
  5.25600000E+05  6       1.00000000
  5.25600000E+05  6       1.00000000
  5.25600000E+05  6       1.00000000
  5.25600000E+05  6       1.00000000
  5.25600000E+05  6       1.00000000
  5.25600000E+05  6       1.00000000
  5.25600000E+05  6       1.00000000
  5.25600000E+05  6       1.00000000
  5.25600000E+05  6       1.00000000
  5.25600000E+05  6       1.00000000
  5.25600000E+05  6       1.00000000
  5.25600000E+05  6       1.00000000
  5.25600000E+05  6       1.00000000
  5.25600000E+05  6       1.00000000
  5.25600000E+05  6       1.00000000
  5.25600000E+05  6       1.00000000
  5.25600000E+05  6       1.00000000
  5.25600000E+05  6       1.00000000
  5.25600000E+05  6       1.00000000
  5.25600000E+05  6       1.00000000
  5.25600000E+05  6       1.00000000
  5.25600000E+05  6       1.00000000
  5.25600000E+05  6       1.00000000
  5.25600000E+05  6       1.00000000
  5.25600000E+05  6       1.00000000
  5.25600000E+05  6       1.00000000
  5.25600000E+05  6       1.00000000
  5.25600000E+05  6       1.00000000
  5.25600000E+05  6       1.00000000
  5.25600000E+05  6       1.00000000
  5.25600000E+05  6       1.00000000
  5.25600000E+05  6       1.00000000
  5.25600000E+05  6       1.00000000
  5.25600000E+05  6       1.00000000
  5.25600000E+05  6       1.00000000
  5.25600000E+05  6       1.00000000
  5.25600000E+05  6       1.00000000
  5.25600000E+05  6       1.00000000
  5.25600000E+05  6       1.00000000
  5.25600000E+05  6       1.00000000
  5.25600000E+05  6       1.00000000
  5.25600000E+05  6       1.00000000
  5.25600000E+05  6       1.00000000
  5.25600000E+05  6       1.00000000
  5.25600000E+05  6       1.00000000
  5.25600000E+05  6       1.00000000
  5.25600000E+05  6       1.00000000
  5.25600000E+05  6       1.00000000
  5.25600000E+05  6       1.00000000
  5.25600000E+05  6       1.00000000
  5.25600000E+05  6       1.00000000
  5.25600000E+05  6       1.00000000
  5.25600000E+05  6       1.00000000
  5.25600000E+05  6       1.00000000
  5.25600000E+05  6       1.00000000
  5.25600000E+05  6       1.00000000
  5.25600000E+05  6       1.00000000
  5.25600000E+05  6       1.00000000
  5.25600000E+05  6       1.00000000
  5.25600000E+05  6       1.00000000
  5.25600000E+05  6       1.00000000
  5.25600000E+05  6       1.00000000
  5.25600000E+05  6       1.00000000
  5.25600000E+05  6       1.00000000
  5.25600000E+05  6       1.00000000
  5.25600000E+05  6       1.00000000
  5.25600000E+05  6       1.00000000
  5.25600000E+05  6       1.00000000
  5.25600000E+05  6       1.00000000
  5.25600000E+05  6       1.00000000
  5.25600000E+05  6       1.00000000
  5.25600000E+05  6       1.00000000
  5.25600000E+05  6       1.00000000
  5.25600000E+05  6       1.00000000
  5.25600000E+05  6       1.00000000
  5.25600000E+05  6       1.00000000
  5.25600000E+05  6       1.00000000
  5.25600000E+05  6       1.00000000
  5.25600000E+05  6       1.00000000
  5.25600000E+05  6       1.00000000
  5.25600000E+05  6       1.00000000
  5.25600000E+05  6       1.00000000
  5.25600000E+05  6       1.00000000
  5.25600000E+05  6       1.00000000
  5.25600000E+05  6       1.00000000
  5.25600000E+05  6       1.00000000
  5.25600000E+05  6       1.00000000
  5.25600000E+05  6       1.00000000
  5.25600000E+05  6       1.00000000
  5.25600000E+05  6       1.00000000
  5.25600000E+05  6       1.00000000
  5.25600000E+05  6       1.00000000
  5.25600000E+05  6       1.00000000
  5.25600000E+05  6       1.00000000
  5.25600000E+05  6       1.00000000
  5.25600000E+05  6       1.00000000
  5.25600000E+05  6       1.00000000
  5.25600000E+05  6       1.00000000
  5.25600000E+05  6       1.00000000
  5.25600000E+05  6       1.00000000
  5.25600000E+05  6       1.00000000
  5.25600000E+05  6       1.00000000
  5.25600000E+05  6       1.00000000
  5.25600000E+05  6       1.00000000
  5.25600000E+05  6       1.00000000
  5.25600000E+05  6       1.00000000
  5.25600000E+05  6       1.00000000
  5.25600000E+05  6       1.00000000
  5.25600000E+05  6       1.00000000
END perioddata

