# File generated by Flopy version 3.10.0.dev5 on 01/30/2026 at 12:55:09.
BEGIN options
END options

BEGIN sources
  
END sources

