# File generated by Flopy version 3.10.0 on 05/09/2026 at 09:47:53.
BEGIN options
END options

BEGIN timing
  TDIS6  sim_model_0718.tdis
END timing

BEGIN models
  gwf6  sim_model_0718.nam  sim_model_0718
END models

BEGIN exchanges
END exchanges

BEGIN solutiongroup  1
  ims6  sim_model_0718.ims  sim_model_0718
END solutiongroup  1

