# File generated by Flopy version 3.10.0.dev5 on 01/30/2026 at 12:54:37.
BEGIN options
  SAVE_FLOWS
END options

BEGIN packages
  DIS6  trans.dis  dis
  IC6  trans.ic  ic
  MST6  trans.mst  mst
  ADV6  trans.adv  adv
  DSP6  trans.dsp  dsp
  FMI6  trans.fmi  fmi
  SRC6  trans.src  src_0
  SSM6  trans.ssm  ssm
  OBS6  trans.obs  obs_0
  OC6  trans.oc  oc
END packages

