# File generated by Flopy version 3.10.0.dev5 on 01/30/2026 at 12:54:34.
BEGIN options
END options

BEGIN dimensions
  MAXBOUND  3
END dimensions

BEGIN period  1
  1 43 80 1.92500000E+03
  1 44 80 1.92500000E+03
  1 45 80 1.92500000E+03
END period  1

