# File generated by Flopy version 3.10.0.dev5 on 01/30/2026 at 12:54:46.
BEGIN options
  auxiliary  CONCENTRATION
  PRINT_INPUT
  PRINT_FLOWS
END options

BEGIN dimensions
  MAXBOUND  1
END dimensions

BEGIN period  1
  7 8 3 5.00000000E-01 1.00000000E+02
END period  1

