# File generated by Flopy version 3.8.0 on 05/07/2026 at 20:45:13.
BEGIN options
  SAVE_FLOWS
END options

BEGIN griddata
  icelltype
    CONSTANT  0
  k
    INTERNAL  FACTOR  1.0
         4.64255155       1.15992930       5.51543595       3.18646147       4.44805187       3.61937241       3.86700440       4.67539283       1.10051307       3.93836183
         8.28860185       9.74319315       8.92604416       3.21719078       1.85601999       4.88725140       8.77540504       5.58180226       5.52974689       6.15005470
         9.17007585       6.00571917       4.43919542       2.92714283       2.59084452       5.39400012       6.51079044       7.92596129       5.42992160       1.31041328
         5.96837723       3.25786059       4.85829287       1.08623940       9.30468953       8.20903273       9.56445173       5.90134544       1.97005241       9.33903991
         6.17154194       8.69604195       2.79005042       4.19632734       3.64040193       7.71634327       9.88051101       8.28748873       1.07275882       7.52609112
         2.13588128       8.07930004       3.05625052       4.60256186       9.70627030       5.18158223       5.02133658       4.41754113       7.80695954       9.93109520
         8.99684987       2.20786939       5.91325688       8.86152520       5.00003413       5.25869205       5.81634095       2.22680422       7.74178273       1.91327019
         7.08266250       6.77208849       7.89684746       5.81066358       1.58298263       8.93443314       9.22537427       5.72989937       1.51519781       2.36723985
         6.03432252       9.88239234       8.03013769       1.09378248       4.03156244       8.22660640       1.16924459       3.41252673       1.51488819       6.42794236
         9.55523915       8.59330223       4.49816567       3.08144212       1.75853319       3.40273990       5.29805574       7.95593522       2.25542064       6.47051839
END griddata

