# File generated by Flopy version 3.8.0 on 05/07/2026 at 20:44:27.
BEGIN options
  SAVE_FLOWS
END options

BEGIN griddata
  icelltype
    CONSTANT  0
  k
    INTERNAL  FACTOR  1.0
         2.34522220       9.02994039       6.24849078       9.09766158       4.14014942       2.33581398       2.06536469       4.83856201       7.53115935       9.64505436
         4.12372837       4.43814675       8.95941720       9.38555007       1.47654152       7.56450508       7.98533149       6.12456339       8.78744152       9.86248737
         4.80203316       3.26180260       5.85451552       1.53384947       5.41716745       8.22378683       7.38580450       5.23101513       2.33984849       1.63032014
         5.70394925       5.71053204       6.07900285       3.05813862       6.66080504       3.12241390       4.39662806       6.17319442       4.48307316       5.94478995
         5.18122772       6.10834005       1.90686213       9.03267723       7.15927976       6.06852478       9.00543201       2.71380192       5.77872122       2.33973214
         9.80375664       4.46093192       7.49504854       8.75910695       8.37193534       7.69545273       7.89971160       7.65254627       8.79818696       1.50543144
         6.78781062       8.96713912       3.40404268       2.03470025       1.76196981       4.32837429       7.78240606       3.28824793       1.97933476       5.15239488
         2.28262303       1.19844956       6.81460715       6.62014311       9.91801638       6.88684635       1.60845467       1.15125907       8.43089752       2.11094407
         7.38845166       8.24601036       6.22866039       6.19252906       1.91002341       5.54446586       4.10233034       3.62505841       9.10968686       2.12411866
         2.68028606       2.20316079       6.41831507       6.91442583       3.67391775       9.27364698       8.95076504       1.70409247       8.08404827       4.92475748
END griddata

