# File generated by Flopy version 3.8.0 on 05/07/2026 at 20:44:12.
BEGIN options
  SAVE_FLOWS
END options

BEGIN griddata
  icelltype
    CONSTANT  0
  k
    INTERNAL  FACTOR  1.0
         9.25646936       5.70155408       1.38729774       4.79247570       7.42786499       2.38992298       1.45372673       7.26621981       8.88995257       2.55355273
         1.21154267       6.34661711       8.16162272       2.90918245       5.30394731       4.19161822       6.66253718       5.37088468       7.04196061       3.51339470
         1.41213820       8.97011779       1.80934670       7.77845670       7.86516644       6.07167371       2.66762420       1.51501669       6.87477104       9.74702300
         7.15915000       9.69616952       8.59366825       2.89363531       2.24983612       4.09813457       5.57213146       3.58541428       5.73317823       4.24818405
         9.78420476       9.55784653       3.94449055       5.50669623       4.55976908       5.32167630       7.40357676       6.57096484       6.13935237       5.63902211
         5.01099492       4.70729086       2.13849419       7.21627106       2.61383742       9.85846398       8.41403548       5.01151553       9.17732320       3.98623717
         3.71938136       4.86366246       6.54357527       6.98813589       3.83976123       9.93937436       8.89380626       3.50446699       3.72479370       3.88879211
         8.29539162       8.52198144       5.92828801       3.74339024       1.04518039       1.83186159       3.17769418       1.07011380       1.38563486       6.06023185
         8.79070804       2.31865298       4.33693810       1.74957980       5.43311782       7.24653349       6.56535638       5.26388310       2.00698352       3.00601452
         4.27067486       1.62446856       1.95541291       8.99065322       7.01017031       6.68594216       6.14130771       8.20209749       1.74686751       9.26544898
END griddata

