# File generated by Flopy version 3.10.0.dev5 on 01/30/2026 at 12:54:00.
BEGIN options
  BUDGET  FILEOUT  ex-gwf-maw-p03.cbc
  HEAD  FILEOUT  ex-gwf-maw-p03.hds
END options

BEGIN period  1
  SAVE  HEAD  LAST
  SAVE  BUDGET  LAST
  PRINT  BUDGET  LAST
END period  1

