# File generated by Flopy version 3.10.0.dev5 on 01/30/2026 at 12:53:56.
BEGIN options
  SAVE_FLOWS
END options

BEGIN packages
  DIS6  parent.dis  dis
  NPF6  parent.npf  npf
  IC6  parent.ic  ic
  RIV6  parent.riv  riv
  RCH6  parent.rcha  rch
  OC6  parent.oc  oc
END packages

