# File generated by Flopy version 3.8.0 on 05/07/2026 at 20:44:11.
BEGIN options
  SAVE_FLOWS
END options

BEGIN griddata
  icelltype
    CONSTANT  0
  k
    INTERNAL  FACTOR  1.0
         8.02813509       4.43030088       8.45773878       8.03514513       8.21437406       4.21211597       9.65909740       4.20615869       8.36722364       9.14669210
         1.38486944       1.14570734       6.00441282       1.72475117       9.67831332       4.67663804       3.92980367       5.17987155       8.84352372       4.17690425
         2.94139599       2.81509589       3.16939157       2.92987847       3.26077814       3.88712872       5.83137388       1.72702212       1.38167860       7.35841510
         9.59178707       6.52123452       7.18274935       2.96364206       8.89236498       2.43381054       5.59945296       2.88044139       4.23947641       1.78799332
         2.09233771       9.95403432       5.62674440       7.14917598       1.99475998       6.72417846       4.37468303       1.14608588       6.79190414       1.91010910
         2.43329427       7.27692615       3.54393995       8.49698922       9.41467279       2.76905197       4.89655451       8.43628752       2.78491493       8.34917762
         1.73779359       4.61594828       9.76238366       8.92111800       1.35328339       3.82488119       1.07989659       1.61022307       3.97370247       1.43157835
         9.81647834       6.16330875       7.77055258       8.96080388       8.33230479       3.51363205       9.16195309       3.92438073       9.39221598       5.04077466
         6.15284039       2.84381019       8.79889572       3.44876348       5.68224299       5.26348205       5.60153272       3.81243532       8.65156751       8.89547403
         8.24575613       6.37514609       1.85181350       4.61520805       1.71035157       6.78360048       4.12478971       2.28346956       3.74696628       7.69286473
END griddata

