# File generated by Flopy version 3.10.0.dev5 on 01/30/2026 at 12:54:25.
BEGIN options
END options

BEGIN timing
  TDIS6  ex-gwt-adv-schemes.tdis
END timing

BEGIN models
  gwt6  gwt_s_step_utvd.nam  gwt_s_step_utvd
END models

BEGIN exchanges
END exchanges

BEGIN solutiongroup  1
  ims6  ex-gwt-adv-schemes.ims  gwt_s_step_utvd
END solutiongroup  1

