# File generated by Flopy version 3.10.0.dev5 on 01/30/2026 at 12:54:26.
BEGIN options
END options

BEGIN dimensions
  NLAY  1
  NCPL  2603
  NVERT  5595
END dimensions

BEGIN griddata
  top
    CONSTANT       1.00000000
  botm
    CONSTANT       0.00000000
END griddata

BEGIN vertices
  1      47.84960883      48.99083910
  2      49.04561269      73.14557064
  3      75.78085345      73.91107862
  4      87.55176322      38.96647441
  5      76.80152789      49.15650950
  6      69.95302756      45.26969306
  7      61.75684582      39.81457317
  8      69.13751201      34.17283085
  9      63.72383499      38.99561847
  10      63.03595698      38.89146288
  11      43.36499368      61.40703522
  12      66.71088894      72.63442672
  13      64.43530084      71.49895663
  14      65.67583088      70.80008294
  15      81.78214746      63.12879819
  16      82.69387969      63.96009009
  17      51.32931401      24.11698175
  18      25.14701484      24.45406913
  19      34.10300243      14.49353226
  20       0.45318952      49.21875000
  21      34.10722307      59.23878117
  22      43.01474889      23.74818871
  23      49.26509927      26.13072867
  24      47.46006820      46.91724537
  25      47.56466057      46.75730892
  26      47.11600175      45.31914343
  27      54.61208698      52.02660080
  28      56.60602579      45.88323832
  29      54.57075465      54.13120308
  30      53.55971444      54.37076114
  31      64.66284928      54.28410218
  32      92.23673911      36.84914222
  33      81.42229098      54.63767425
  34      86.66393142      41.04824299
  35      87.45295690      40.40319646
  36      82.97149151      43.52978430
  37      84.29481460      44.53482529
  38      76.24700480      38.77347637
  39      75.67699206      37.61791090
  40      74.10902922      37.48982572
  41      68.80179683      51.14858423
  42      68.88607277      49.92564304
  43      66.24103149      49.11051898
  44      69.29940563      49.37712066
  45      69.23546504      43.79636738
  46      66.08480351      37.09355451
  47      99.07340675       5.12500000
  48      98.55371260       4.08254127
  49      89.06250000       0.12322428
  50      60.93750000       0.13646504
  51      59.98764201       1.26512919
  52      75.68171335       5.97533597
  53      76.84725735       5.16849578
  54      67.18750000       0.18230052
  55      66.12159326       1.13107570
  56      63.46987707       5.18224931
  57      62.53946934       4.67078015
  58      67.37515247      15.23398770
  59      75.62214440       7.21251434
  60      76.49564742       7.97376301
  61      72.82706623      11.57485039
  62      74.21163009       7.76322156
  63      74.01181267       8.87405157
  64      73.10562395       6.77704647
  65      72.21212552       6.95734315
  66      85.92271028      12.64984412
  67      80.92807660      11.53502948
  68      66.15819151      48.26751944
  69      66.72437150      47.22533145
  70      61.84521339      40.98575874
  71      71.06463496      33.63543251
  72      71.06252345      33.68159917
  73      55.63611231      30.68181182
  74      55.29537897      32.59750225
  75      59.06870376      30.01958658
  76      62.12518028      37.60466980
  77      59.64661073      28.34197092
  78      66.03419373      37.03478676
  79      64.44111858      37.16180740
  80      61.83086663      29.68967915
  81      63.14541615      12.79959549
  82      64.10500787      10.98447771
  83      77.49845520      21.01385957
  84      77.04066193      22.60664223
  85      48.49846847      89.92296359
  86      48.46027700      90.03424263
  87      61.79219046      88.49166165
  88      49.31660396      91.78936201
  89      50.90364641      91.75296181
  90      99.82454073      95.31250000
  91      99.94124886      89.06250000
  92      99.42527047      89.47653889
  93      82.81250000      99.23879778
  94      48.93837589      65.29133365
  95      50.86324573      64.36389543
  96      50.57348620      64.76238970
  97      45.75352424      61.14936391
  98      48.08963810      64.56460536
  99      45.29092287      61.94281541
  100      44.28575562      62.23876490
  101      46.29817825      63.22827746
  102      47.45698610      70.70883425
  103      46.63469457      71.28279472
  104      61.99617435      63.54938580
  105      82.14670395      65.36587439
  106      75.89091879      73.81124393
  107      55.82136277      65.05940547
  108      55.46708520      67.33497685
  109      56.21806996      66.87518315
  110      62.26875879      73.05245962
  111      61.41155793      73.92047043
  112      58.10987207      68.86062713
  113      55.53235122      69.07608574
  114      56.79934850      69.78871062
  115      92.25465841      46.54668876
  116      95.78212125      10.96350673
  117      96.75762386      10.59351865
  118      99.29542809      79.68750000
  119      99.77649444      76.56250000
  120      99.01842824      77.43671899
  121      98.96278583      79.88965321
  122      99.10836541      82.81250000
  123      87.91513103      69.40399827
  124      82.95612130      63.89864282
  125      89.47148377      67.21316227
  126      90.38354413      68.22442645
  127      82.23374878      55.40735079
  128      51.93287313      23.27153963
  129      55.35329058      17.79965800
  130      45.64575239      12.95098355
  131      45.84160234      14.11737884
  132      45.25630371      14.78266743
  133      43.75986128      14.72486286
  134      53.56637006      25.63344183
  135      56.91817137      28.97419273
  136      55.27749441      27.82528278
  137      55.92207317      26.53573008
  138      21.79535014      21.26468225
  139      27.33032435      23.41955094
  140      25.73671988      23.41879334
  141      20.41434315      20.51898046
  142      27.38866814      23.47865173
  143      35.31854874      14.32646320
  144      37.87629228      14.21787738
  145      37.91625448      20.87884138
  146      35.24324824      21.32658942
  147      35.83605863      22.84273573
  148      35.22164195      18.77455650
  149      34.99817686      16.92815563
  150      33.84185505      21.17747542
  151      33.17353510      22.19859694
  152       2.89291945      26.37841716
  153       4.75340019      22.31003790
  154       5.58803037      13.11549818
  155      14.24188957      43.29200507
  156      18.74187343      32.00183229
  157      27.94557587      87.31404190
  158      23.43750000      99.81933407
  159      22.29688720      98.80300664
  160      20.06959653      96.91123153
  161      20.48802021      97.38085407
  162      13.42404202      96.46193676
  163      15.86786915      91.69581501
  164       3.54463476      86.74620475
  165       0.18064814      85.93750000
  166       2.99778502      86.84301504
  167      12.75148348      93.78927300
  168       8.29906190      89.26349416
  169       9.49842787      89.35205762
  170       0.18079876      29.68750000
  171       1.25845544      28.47795594
  172      10.22081115      22.61476667
  173       9.69421175      23.26342902
  174      12.66505126      27.34687745
  175      10.24533670      35.06305442
  176      10.05082391      33.51553144
  177      11.00898449      31.57037522
  178      11.12632419      32.64584136
  179      16.71798307      33.29768531
  180      16.22134080      32.92287928
  181      26.13873765      50.52170668
  182      24.94139060      66.89037131
  183      22.39788856      68.66945199
  184      14.94238606      67.52308789
  185      15.29261152      66.08781160
  186      22.74929013      78.32699632
  187      22.77151921      77.13900006
  188      20.64344364      68.78853121
  189       3.77382513      57.86041550
  190      15.07321630      65.85518490
  191      25.03695382      49.10809769
  192      15.21086847      50.48977850
  193      24.13871419      58.48192252
  194       8.94233516      60.02655840
  195      12.55039839      62.93786670
  196      13.22524168      62.08722136
  197      13.02755566      64.24376962
  198      14.70339955      62.49539811
  199      15.15040198      63.34521691
  200      14.90985622      63.69283403
  201      13.33486423      53.45376286
  202      14.33249271      51.44301204
  203      14.48628809      52.17824978
  204      38.58489794      89.08254703
  205      36.18419679      40.28704161
  206      40.80395192      43.87967676
  207      37.33797523      38.25530875
  208      38.34968995      39.28037244
  209      36.19459307      35.71155111
  210      24.63969289      36.01815780
  211      45.28639157      47.05593705
  212      45.71034819      47.32101402
  213      46.06357845      48.72457217
  214      45.26256937      49.63646508
  215      44.99675670      49.63843994
  216      42.15567753      61.76309188
  217      33.58704208      59.80982480
  218      31.63536376      59.70252570
  219      29.68151431      58.40205546
  220      31.26228856      58.55913994
  221      32.01735955      54.51722308
  222      30.36777046      47.56845360
  223      30.67058585      52.50535966
  224      32.21383059      31.69003378
  225      47.98147892      44.46792832
  226      55.59010834      46.33377555
  227      49.71984016      46.51908850
  228      49.33466884      43.81472259
  229      48.75896753      44.45319777
  230      53.06336018      50.36539766
  231      53.47936090      51.57373080
  232      51.40817614      50.12326218
  233      50.40114604      51.44920685
  234      52.13967775      52.89474690
  235      57.57915275      46.60724496
  236      54.80640036      56.89574581
  237      55.44890501      54.70027348
  238      62.74785006      62.04295390
  239      65.85873827      70.26793168
  240      63.70881696      64.44971766
  241      63.61740900      65.81817098
  242      81.78241026      56.99618714
  243      88.00176220      38.70628679
  244      88.63872348      36.82330304
  245      89.37539345      36.75011721
  246      89.91542025      39.08652337
  247      90.43744599      38.58695543
  248      91.85293333      36.29359099
  249      89.85054856      34.79447935
  250      90.12835025      35.96321114
  251      90.25543905      28.54929470
  252      88.42445812      28.00401083
  253      93.23087359      28.21784206
  254      89.00663069      32.62879533
  255      90.54057607      32.67622267
  256      90.61935569      31.16801391
  257      70.12626365      32.27724414
  258      66.40417481      29.38682220
  259      67.45410810      29.37662872
  260      77.75810217      48.21733119
  261      78.91614138      48.50046155
  262      81.16080052      47.99046939
  263      79.72021419      47.53070276
  264      79.36578268      49.62662259
  265      80.25725356      55.03622738
  266      87.15044763      42.65586931
  267      87.96369582      42.88956794
  268      89.10581593      42.03891231
  269      91.62696887      41.29210099
  270      89.78980161      40.64304729
  271      89.16532117      41.04803307
  272      86.32229428      47.53775717
  273      85.53802852      46.85275829
  274      86.53324949      38.33129847
  275      85.86452959      40.97148767
  276      84.82590607      42.28493314
  277      83.25806469      41.97049690
  278      80.21042902      34.32815023
  279      80.93298459      34.96730893
  280      80.45846587      36.61687899
  281      80.55005966      36.60939722
  282      82.83761398      36.39018242
  283      83.83708976      33.97131197
  284      82.16295635      34.37451022
  285      82.03837370      34.62971014
  286      76.38829386      36.51494355
  287      77.74820548      36.60394224
  288      77.76831621      33.88196656
  289      78.55489120      34.93516225
  290      78.57321012      35.21665840
  291      55.87524908      54.61655044
  292      55.37680401      51.75517498
  293      61.80045160      55.03438681
  294      66.02606752      49.51834375
  295      66.14753737      52.16041868
  296      66.66598471      51.35170952
  297      78.00787880      40.07797478
  298      77.49464398      38.84655419
  299      78.39246509      37.82806101
  300      78.93974566      37.89350793
  301      79.81605202      39.02494957
  302      79.36850196      40.21172131
  303      73.63604875      39.01901043
  304      71.55693076      45.36998702
  305      69.27618836      48.43193609
  306      69.93034107      47.60427747
  307      69.47966398      45.99516762
  308      67.44402452      46.28508633
  309      67.01676427      47.06125709
  310      71.64315711      49.76333941
  311      68.50742849      43.63685799
  312      67.79985846      42.18692466
  313      67.20723662      44.69997719
  314      65.90277274      44.16552906
  315      65.67331346      42.51256292
  316      66.04616610      42.11664956
  317      68.08319473      37.37348455
  318      68.57278132      35.79061086
  319      68.79025488      35.67530322
  320      98.95892879       3.00000000
  321      96.51041798       4.17923182
  322      93.93852081       4.37039117
  323      98.49318648       6.42658725
  324      96.54587666       8.59157517
  325      51.56250000       0.00984512
  326      52.47897320       1.39153430
  327      50.43355774       2.89279306
  328      54.59965687       7.10603463
  329      55.94776036       7.53192351
  330      50.60579885       7.98506479
  331      53.50740258       8.07167768
  332      53.51467394       8.00819151
  333      55.07481723       5.03496995
  334      54.44711463       5.67063286
  335      61.18901733       6.24319587
  336      59.47805048       5.96942388
  337      56.66542953       5.40790843
  338      57.07650857       6.34462708
  339      58.48942673       6.88129022
  340      58.87925361       6.73878316
  341      68.17570110       6.09034929
  342      71.30604121       6.35446575
  343      70.11163407       8.79389531
  344      70.00314393       7.21890877
  345      68.35930737       6.42840575
  346      64.68696809      10.94763882
  347      63.00331275       7.19553992
  348      61.68330858       7.59201742
  349      58.59375000       0.51236686
  350      57.03125000       0.95123851
  351      57.36413865       1.17641048
  352      59.92664243       2.07774819
  353      59.49983174       4.60341983
  354      62.15766556       4.02802733
  355      62.15420730       3.18688507
  356      81.12124341       5.74277495
  357      81.71815837       4.57910081
  358      84.19518169       1.02427012
  359      84.56411247       2.30209350
  360      77.95443881       7.63247163
  361      80.19340129       6.13704837
  362      82.21126385      10.03894790
  363      84.85480336      10.01689086
  364      67.75750734       3.20854286
  365      66.27588343       2.68865798
  366      65.22473593       3.31153445
  367      64.18425210       2.38768052
  368      64.06250000       0.23926384
  369      64.44672213       0.76553138
  370      62.34923885       1.12834948
  371      62.34753444       2.91389166
  372      66.43551144      18.31257304
  373      68.04930366      17.61329618
  374      68.38895507      15.87370594
  375      68.37002736      15.83047692
  376      74.31421520      17.05110936
  377      69.85274369      11.37165481
  378      68.05970921      13.17247679
  379      72.13539900      12.97413696
  380      71.24050884      14.95580432
  381      69.86458469      14.51514564
  382      69.54085294      13.23297530
  383      70.11609590      12.51392884
  384      72.36665159      10.90179737
  385      72.68787187       9.25367918
  386      71.90244611       8.53360319
  387      70.38897548       8.97004408
  388      70.70973985      10.52992397
  389      72.81435111      12.01462271
  390      72.24836027      12.91799107
  391      73.76984172      14.59711329
  392      72.34416020       4.11362307
  393      69.88845113       4.83192924
  394      71.13205830       5.43939507
  395      74.64580242       5.40036527
  396      73.61308072       5.72883048
  397      74.67054338       3.47860057
  398      72.49164098       4.16290670
  399      83.40584815      17.10684703
  400      83.63419710      19.83478279
  401      81.39833619      20.12978921
  402      82.64438836      17.91342262
  403      81.48085503      18.20007698
  404      81.66271827      18.04900141
  405      85.36403398      17.97703330
  406      85.10305673      19.25646897
  407      86.56251967      20.69309705
  408      83.48278416      20.30343719
  409      82.21882504      20.75559544
  410      87.32901717      20.32957956
  411      87.09515527      20.56426074
  412      87.65010729       4.64314056
  413      86.23854978       3.65908705
  414      83.67100845       6.02585976
  415      82.71601955       4.38891493
  416      85.28354832       4.36804828
  417      83.60726602       3.48182792
  418      83.45852858       3.51252461
  419      80.66008100      15.82178705
  420      76.22309036       9.22498829
  421      77.09683039      10.30705737
  422      75.82949934      11.67958237
  423      74.59595571      10.60481054
  424      74.72843871       9.66446660
  425      78.80357041      12.49964471
  426      78.45565795      12.47532754
  427      80.38755450      11.39846943
  428      77.83350379      10.38206537
  429      64.30950693      45.38978117
  430      64.30745481      45.41444201
  431      61.17049990      45.23122032
  432      65.93068360      40.96599379
  433      66.06895359      38.72361390
  434      67.18585189      39.62683793
  435      64.25679519      39.57791202
  436      64.29108775      39.80114129
  437      63.61804978      41.16267293
  438      62.74819137      41.44957799
  439      64.72619464      42.43857652
  440      62.60620790      43.26714465
  441      62.99851799      43.78730153
  442      63.08791683      43.81772711
  443      75.80590608      35.28451597
  444      75.95406406      34.83681621
  445      72.37360390      32.06869859
  446      56.11267583      33.64422489
  447      57.70150739      32.45852745
  448      59.02585196      32.95467427
  449      59.25611055      34.14316597
  450      48.88167705      32.16494178
  451      48.04869979      33.99738073
  452      52.97272577      32.43720174
  453      52.75522507      37.45724444
  454      61.28479718      30.49177660
  455      59.70349549      30.62040072
  456      61.92207218      32.51244701
  457      59.63904472      32.39343494
  458      57.51016192      31.57289317
  459      58.55087842      30.11991015
  460      55.86356190      30.62206895
  461      56.93630440      29.09297199
  462      61.05626583      37.68532087
  463      60.45660430      39.14669748
  464      60.17068379      36.60817913
  465      60.95583670      28.18359199
  466      61.09674612      28.25780495
  467      62.97584510      27.39516987
  468      62.30989217      25.91047338
  469      61.01029791      26.30113215
  470      63.52514521      27.60154665
  471      65.69558177      28.64939697
  472      62.42711859      29.72668512
  473      64.46367641      28.91924221
  474      63.83663795      28.54302283
  475      53.45955156      23.04738238
  476      53.66788318      21.44295140
  477      56.27267442      16.65431583
  478      62.76978302      12.84002780
  479      66.73249558      15.27257027
  480      63.89936932      14.90410047
  481      65.67069890      16.23324810
  482      64.83813659      16.21785084
  483      65.44635171      13.30956663
  484      64.34016942      13.69558682
  485      62.70061249      24.82834048
  486      62.76072439      24.96749252
  487      64.59440067      22.84030182
  488      64.14030484      20.16102212
  489      66.37446439      18.47650363
  490      80.30645720      18.31716544
  491      77.95314182      18.49551064
  492      78.94676021      17.04921419
  493      78.43831792      17.01641314
  494      80.26938150      20.49185183
  495      77.96172697      20.98921692
  496      79.22803405      19.60440680
  497      79.32905178      19.59863278
  498      79.36971799      22.04404445
  499      79.99871184      21.89621879
  500      76.09775718      24.70148923
  501      77.23850504      20.79295108
  502      76.17669662      18.55986645
  503      77.13025684      18.89912560
  504      75.74690547      20.73686731
  505      74.97449067      19.53037406
  506      72.08538411      83.66756070
  507      73.21418953      80.65457613
  508      73.03541297      80.93829952
  509      79.55336558      82.42140670
  510      78.51882329      83.41654084
  511      77.75580007      75.68543062
  512      75.98017051      75.70967335
  513      75.44168223      76.31945745
  514      74.41310995      73.91685744
  515      73.05148908      77.56552167
  516      72.29644776      78.19490401
  517      75.15065739      92.62823610
  518      75.54430709      91.56180705
  519      68.22093143      81.74053986
  520      67.21707504      82.80843251
  521      65.37852547      84.22178198
  522      77.34375000      98.82240857
  523      79.41913832      97.46468141
  524      79.68750000      99.77147926
  525      79.02965183      98.96089220
  526      81.03246653      95.25916475
  527      48.43750000      99.91581328
  528      56.80006325      98.77895923
  529      47.73627241      88.42700494
  530      47.11809543      90.58996732
  531      57.03125000      98.92788482
  532      58.59375000      98.83800948
  533      60.57300243      88.11080237
  534      59.32154803      89.25401787
  535      48.92479129      92.26809459
  536      46.70375367      92.48899723
  537      46.66310692      92.52453371
  538      55.33842136      91.49346629
  539      56.58389004      89.90099600
  540      55.71323547      90.22494850
  541      56.22735573      92.47946208
  542      54.63376430      88.21001132
  543      54.55614306      89.48152139
  544      53.31899140      90.07782231
  545      53.69689663      91.93458172
  546      53.29579144      91.61344262
  547      52.66581753      94.38411505
  548      51.27078155      92.38297325
  549      51.25364180      92.06073270
  550      72.65625000      98.95315329
  551      69.53125000      98.85947543
  552      71.09375000      98.91001219
  553      70.72202313      98.62772669
  554      70.95392592      97.25414043
  555      80.93737014      95.20243293
  556      66.40625000      99.03802967
  557      60.93750000      99.97952986
  558      62.17082915      98.89749207
  559      63.28125000      99.51542115
  560      64.84375000      98.71777235
  561      64.79542638      98.67280944
  562      64.59522206      95.55640482
  563      66.94998111      96.77190584
  564      68.91247034      98.59173672
  565      67.59967802      95.98188568
  566      67.96875000      98.78459945
  567      67.35216310      98.54565870
  568      98.91848711      96.32599269
  569      97.57209020      96.44057835
  570      97.08680508      96.10918178
  571      98.97109824      85.15625000
  572      97.21641920      85.20367235
  573      96.87165237      84.23161844
  574      97.66890885      82.82736253
  575      99.02316223      82.86691112
  576      96.14154719      86.00002801
  577      98.95555399      87.73484509
  578      97.59538419      87.60219077
  579      99.53018597      86.71875000
  580      98.07019370      85.58505787
  581      98.78137397      85.39466045
  582      95.70462358      90.89396130
  583      99.00328554      91.40625000
  584      85.15625000      99.06134967
  585      94.08780304      92.95290089
  586      90.48995838      84.35915143
  587      87.99849846      87.99935258
  588      88.00290693      88.52104093
  589      89.27673462      87.00544878
  590      47.45561144      59.07741614
  591      49.15125621      72.02548802
  592      47.83415641      70.71988560
  593      45.95513026      71.30888387
  594      78.18757503      72.18581062
  595      80.81801348      72.10716046
  596      80.33482426      63.43788634
  597      68.92268241      79.38236493
  598      70.56803486      77.39873842
  599      70.70703405      78.87512183
  600      71.09233937      78.21821247
  601      57.05220285      63.99923310
  602      58.75849432      59.30867689
  603      57.68528549      61.31356143
  604      58.23036646      61.74318397
  605      60.38258673      61.12058946
  606      60.30088488      61.26710084
  607      61.95827205      63.56268308
  608      60.43478911      62.80249928
  609      50.71253019      75.04967987
  610      50.55702422      73.85222240
  611      50.99062586      73.49023278
  612      54.60060605      67.18286690
  613      52.70075723      63.58251835
  614      52.70038831      65.88086175
  615      53.78102830      65.80874151
  616      54.36140122      64.30672872
  617      54.44844417      64.53665106
  618      51.46508576      64.16946436
  619      51.69227400      63.90671997
  620      62.89796874      73.30072362
  621      64.39359081      72.61079526
  622      65.36218738      73.25658086
  623      61.53050450      75.49764664
  624      59.88074484      73.82429584
  625      57.03272737      66.97274085
  626      58.16012253      68.38723141
  627      63.75018011      69.41096482
  628      63.39264739      68.08907133
  629      61.10824537      69.46065004
  630      61.99867498      72.31583363
  631      63.12552613      70.62569971
  632      63.07488863      70.33885543
  633      56.69746344      71.23969967
  634      55.85780989      73.45897124
  635      88.84165441      64.94150644
  636      89.86240230      65.88922410
  637      92.83722485      62.98597649
  638      91.54243680      63.98739148
  639      93.13806733      57.47668161
  640      91.21802310      59.63246469
  641      95.09898761      59.30964369
  642      93.73779763      59.48688857
  643      93.97298088      63.35989807
  644      94.91399184      61.99593835
  645      95.72251049      61.85703746
  646      98.71715200      61.84062197
  647      98.65941565      61.84633313
  648      99.35494520      52.34375000
  649      99.06438556      50.78125000
  650      98.84365813      51.25855039
  651      96.37693240      50.45682166
  652      97.42010629      51.64362449
  653      97.08049959      53.38394197
  654      96.37860372      50.42324944
  655      99.69697175      45.31250000
  656      98.43750000      46.83969827
  657      87.34792917      47.34560750
  658      99.63502446      17.18750000
  659      98.71868890      14.84375000
  660      95.71683687      15.57452042
  661      93.99694505      16.20561176
  662      97.14659268      10.78763296
  663      99.68114989      10.93750000
  664      98.91266648      10.37666797
  665      98.95624182      22.65625000
  666      99.47534499      24.21875000
  667      98.85074022      23.04691078
  668      97.01422278      27.66657460
  669      93.61706695      22.87947993
  670      89.00059685      12.79377387
  671      89.96203871      12.90449919
  672      94.64932657      10.47434449
  673      98.92879734      41.40625000
  674      92.04415790      39.82288357
  675      92.20606060      37.15794433
  676      90.98237564      38.52910342
  677      88.28558110      85.45998262
  678      88.89616973      84.19828731
  679      99.52646858      69.53125000
  680      96.19493703      71.87800233
  681      98.75815586      71.09375000
  682      98.69966543      70.99921518
  683      98.74647418      72.65625000
  684      99.96147735      67.18750000
  685      98.73062656      68.11825542
  686      98.41881961      68.13429326
  687      97.31728196      66.56844633
  688      98.65031760      75.26376755
  689      99.01420004      74.21875000
  690      97.62752226      73.03787169
  691      98.56812876      72.93769801
  692      95.33994462      82.39941991
  693      97.11918232      82.31621335
  694      92.08162990      74.48904428
  695      92.07097846      74.93560822
  696      93.69045643      76.80152859
  697      93.59234577      75.97537131
  698      90.46775810      81.86700184
  699      91.21631725      83.49537430
  700      92.81098702      83.51104193
  701      84.01798246      75.55457001
  702      86.00140111      76.61585490
  703      84.65077019      64.81292359
  704      87.19965880      65.29160585
  705      89.15967394      69.77147380
  706      90.04587619      69.30289605
  707      91.40440774      70.47270648
  708      82.80258931      66.17388396
  709      82.37047541      67.93177012
  710      83.68181503      68.41981332
  711      93.83903357      48.96472465
  712      92.15192997      47.67054657
  713      88.38669736      55.84693905
  714      87.61759437      56.28581117
  715      37.74864739      11.53242659
  716      34.92958939      11.90702339
  717      36.67326225      12.97380828
  718      35.87332704      13.02493039
  719      50.07184377       0.98512757
  720      50.10466678       2.49712015
  721      50.47820743       3.35652774
  722      52.45546201       4.11869491
  723      52.52635009       5.49095698
  724      51.90890438       6.25823669
  725      51.91945241       6.25539323
  726      45.05215512       6.27529303
  727      45.07217697       7.80322152
  728      47.31884687       3.80931947
  729      45.35841670       4.64040177
  730      45.24764625       6.10398789
  731      49.95828160       7.88600330
  732      43.75357083      22.88002266
  733      45.24206774      23.32164457
  734      46.10096700      22.55991171
  735      52.59090028      20.57391312
  736      53.39737394      19.10173142
  737      49.65144247      17.64642331
  738      47.69931316      14.64671229
  739      50.14437340      14.48097443
  740      49.82304031      15.08535329
  741      51.48543233      24.95479004
  742      51.79889296      25.28923276
  743      49.69089640      26.18045132
  744      55.16390864      27.87206304
  745      53.47576105      27.23016561