# File generated by Flopy version 3.10.0 on 05/09/2026 at 09:47:45.
BEGIN options
END options

BEGIN timing
  TDIS6  sim_model_0615.tdis
END timing

BEGIN models
  gwf6  sim_model_0615.nam  sim_model_0615
END models

BEGIN exchanges
END exchanges

BEGIN solutiongroup  1
  ims6  sim_model_0615.ims  sim_model_0615
END solutiongroup  1

