# File generated by Flopy version 3.8.0 on 05/08/2026 at 17:23:27.
BEGIN options
  PRINT_OPTION  summary
  COMPLEXITY  moderate
END options

BEGIN nonlinear
  OUTER_HCLOSE  1.00000000E-06
END nonlinear

BEGIN linear
  INNER_HCLOSE  1.00000000E-06
END linear

