# File generated by Flopy version 3.8.0 on 05/08/2026 at 17:23:27.
BEGIN options
  BUDGET  FILEOUT  base_model.cbc
  HEAD  FILEOUT  base_model.hds
END options

BEGIN period  1
  SAVE  HEAD  ALL
  SAVE  BUDGET  ALL
  PRINT  BUDGET  LAST
END period  1

