# File generated by Flopy version 3.8.0 on 05/08/2026 at 17:23:27.
BEGIN options
END options

BEGIN griddata
  strt
    CONSTANT       7.50000000
END griddata

