# File generated by Flopy version 3.8.0 on 05/08/2026 at 17:23:27.
BEGIN options
  SAVE_FLOWS
END options

BEGIN packages
  DIS6  base_model.dis  dis
  NPF6  base_model.npf  npf
  IC6  base_model.ic  ic
  CHD6  base_model.chd  chd_0
  OC6  base_model.oc  oc
END packages

