# File generated by Flopy version 3.8.0 on 05/08/2026 at 17:23:27.
BEGIN options
END options

BEGIN timing
  TDIS6  base_model.tdis
END timing

BEGIN models
  gwf6  base_model.nam  base_model
END models

BEGIN exchanges
END exchanges

BEGIN solutiongroup  1
  ims6  base_model.ims  base_model
END solutiongroup  1

