# File generated by Flopy version 3.8.0 on 05/07/2026 at 20:46:27.
BEGIN options
  SAVE_FLOWS
END options

BEGIN griddata
  icelltype
    CONSTANT  0
  k
    INTERNAL  FACTOR  1.0
         7.19916357       1.05763314       3.93385140       2.64736887       4.35542633       9.84816049       4.26848468       8.25069337       7.81387451       7.36096312
         2.67614473       4.52665211       8.00052795       9.28557068       9.54546170       3.83843138       7.94831053       1.05685843       9.94232389       3.87421625
         7.37726922       2.60517660       3.70426917       1.14657708       9.80014471       8.42268985       8.14818639       1.88662748       4.52446881       7.02441691
         5.53753227       6.59381853       7.43587617       4.97688512       2.72027403       2.77069434       2.75932846       8.18985390       9.58970162       4.05054563
         5.36472230       7.29488672       8.83671975       5.60927917       9.36152331       1.05739427       3.53789089       6.69092955       8.51720248       7.55140292
         4.79319464       9.01013337       8.95691028       1.95520933       9.01119149       8.53684520       9.59108074       1.82517695       9.31117734       7.93713616
         7.17673155       8.03269320       5.24895594       8.33310107       1.77398372       9.67319044       1.32258715       4.28237695       8.12322393       6.16791184
         2.27105206       7.66913660       6.32741795       5.30901348       3.96148346       6.27167528       8.74066916       9.47050278       8.78066315       5.33532792
         9.47173995       9.84970268       7.28813068       3.55817639       9.21104436       7.36964101       9.19990783       4.14474807       4.79616401       1.94739332
         8.98033436       9.46744680       2.80114298       3.79319686       3.34256164       2.73049813       8.24466429       2.44270823       8.13779066       7.63811623
END griddata

