# File generated by Flopy version 3.10.0.dev5 on 01/30/2026 at 12:53:37.
BEGIN options
  COMPLEXITY  simple
END options

BEGIN linear
  INNER_DVCLOSE       0.00100000
  LINEAR_ACCELERATION  bicgstab
END linear

