# File generated by Flopy version 3.10.0.dev5 on 01/30/2026 at 12:54:43.
BEGIN options
  SCHEME  upstream
END options

