# File generated by Flopy version 3.10.0.dev5 on 01/30/2026 at 12:54:38.
BEGIN options
  BUDGET  FILEOUT  trans.cbc
  CONCENTRATION  FILEOUT  trans.ucn
END options

BEGIN period  1
  SAVE  CONCENTRATION  ALL
  SAVE  BUDGET  LAST
  PRINT  CONCENTRATION  LAST
  PRINT  BUDGET  LAST
END period  1

