# File generated by Flopy version 3.10.0.dev5 on 01/30/2026 at 12:54:38.
BEGIN options
  PRINT_OPTION  summary
END options

BEGIN linear
  INNER_MAXIMUM  300
  INNER_DVCLOSE  1.00000000E-04
  LINEAR_ACCELERATION  bicgstab
END linear

