# File generated by Flopy version 3.10.0.dev5 on 01/30/2026 at 12:53:48.
BEGIN options
  READASARRAYS
END options

BEGIN period  1
  recharge
    CONSTANT       0.01160000
END period  1

