# File generated by Flopy version 3.10.0.dev5 on 01/30/2026 at 12:53:38.
BEGIN options
  TIME_UNITS  days
END options

BEGIN dimensions
  NPER  2
END dimensions

BEGIN perioddata
  1.00000000E+09  1       1.00000000
     100.00000000  100       1.00000000
END perioddata

