# File generated by Flopy version 3.10.0.dev5 on 01/30/2026 at 12:53:38.
BEGIN options
END options

BEGIN sources
  CHD-1  AUX  TEMPERATURE
END sources

