# File generated by Flopy version 3.10.0.dev5 on 01/30/2026 at 12:53:38.
BEGIN options
  BUDGET  FILEOUT  gwf-danckwerts.cbc
  HEAD  FILEOUT  gwf-danckwerts.hds
  HEAD  PRINT_FORMAT  COLUMNS  10  WIDTH  15  DIGITS  6  GENERAL
END options

BEGIN period  1
  SAVE  HEAD  ALL
  SAVE  BUDGET  ALL
  PRINT  HEAD  ALL
  PRINT  BUDGET  ALL
END period  1

