# File generated by Flopy version 3.10.0.dev5 on 01/30/2026 at 12:53:38.
BEGIN options
  SAVE_FLOWS
END options

BEGIN griddata
  icelltype
    CONSTANT  1
  k
    CONSTANT     100.00000000
  k33
    CONSTANT      10.00000000
END griddata

