# File generated by Flopy version 3.10.0.dev5 on 01/30/2026 at 12:54:35.
BEGIN options
  SAVE_FLOWS
END options

BEGIN packages
  DIS6  flow.dis  dis
  NPF6  flow.npf  npf
  IC6  flow.ic  ic
  CHD6  flow.chd  chd_0
  WEL6  flow.wel  wel-1
  OC6  flow.oc  oc
END packages

