# File generated by Flopy version 3.8.0 on 05/07/2026 at 20:45:58.
BEGIN options
  SAVE_FLOWS
END options

BEGIN griddata
  icelltype
    CONSTANT  0
  k
    INTERNAL  FACTOR  1.0
         7.81013460       3.76700586       9.04527006       4.48020823       8.86469149       1.68612278       4.38914974       3.93898634       9.46736082       5.34809743
         5.99920534       4.01235399       3.54984699       5.59989012       6.03482921       6.81278863       5.32746471       6.55285673       5.03575080       4.63126049
         9.98082969       9.63566614       6.74499285       1.27405259       5.54765902       9.66115846       6.14701434       5.44457079       7.24701668       1.28707523
         6.83633389       7.41719985       6.51766685       9.71269114       8.59136591       4.95961095       5.03268145       7.69914837       5.67554420       3.33973366
         7.62472243       5.42880345       5.03918640       2.90374162       9.91017130       2.20063462       2.55838193       8.26630256       7.92293274       3.86376110
         5.21617325       5.44392192       4.73596496       2.12996418       3.62671938       8.78645159       6.89681136       5.03913088       3.24087145       6.31631670
         9.94454075       7.86536982       7.21167003       7.27295670       5.40553847       2.08892585       8.72095408       6.57826623       6.39429337       8.42169816
         3.09826427       3.43031982       8.27668070       6.03918111       3.63343570       3.61254370       9.27507051       4.40003589       2.03410177       8.23689396
         7.40393691       1.49793092       9.02600140       2.06339664       1.94272216       6.76978274       9.76267300       3.35587932       6.26755095       5.87363227
         8.35739753       3.73225267       8.67934378       9.77023909       2.01697368       3.57452400       3.01633581       4.98095894       3.56612658       7.73345589
END griddata

