# File generated by Flopy version 3.8.0 on 05/07/2026 at 20:46:00.
BEGIN options
  SAVE_FLOWS
END options

BEGIN griddata
  icelltype
    CONSTANT  0
  k
    INTERNAL  FACTOR  1.0
         5.23982617       5.92173138       8.44376523       9.04811693       1.61337555       5.22827480       7.72912659       6.41794533       6.67701339       9.19435748
         8.66860237       4.07252078       1.26219395       7.69597312       1.51068337       8.78623618       9.74487652       7.03306210       3.45112803       1.67679528
         1.21126583       6.29239558       8.99011875       2.86333868       7.05786150       4.83165548       5.14072707       1.90719727       6.46213767       3.15310021
         3.90152909       2.21545956       5.13118377       3.67408879       9.82149342       4.21036324       8.31313895       8.16345132       8.20560584       5.74420446
         9.12077566       3.44353856       6.27206924       4.81551841       5.25444354       1.80508360       2.92433728       9.96254949       8.53728966       7.81320873
         1.89289673       6.64916077       9.88520724       9.66260597       4.50140257       4.83071191       6.22973335       7.35251075       3.41671196       8.70218420
         2.10436725       4.48187549       5.08659294       7.83210276       1.35267557       4.40807586       5.84429846       7.29655722       5.20702229       5.57776321
         1.40764307       1.48572244       6.44141498       5.50914621       2.64838400       9.54022428       8.93752096       8.22278664       9.46238619       3.38375354
         1.41822727       5.27958277       4.80754313       8.57582517       4.76110522       8.51279176       3.57126130       8.76071598       4.74512454       5.52002384
         1.93080981       4.83671600       3.80872950       2.96371239       3.26603890       9.10573832       2.79555387       5.41087070       2.62354760       2.46634883
END griddata

