# File generated by Flopy version 3.8.0 on 05/07/2026 at 20:44:58.
BEGIN options
  SAVE_FLOWS
END options

BEGIN griddata
  icelltype
    CONSTANT  0
  k
    INTERNAL  FACTOR  1.0
         4.03425054       5.69632752       9.36089175       5.73827158       9.42634754       9.58173533       6.67398645       4.75281639       3.13418768       6.31015800
         4.02528379       8.33546761       8.52437089       1.12722355       6.25083588       5.39564287       9.84509907       4.78921367       2.12133948       6.39965599
         4.58438312       6.13475944       7.35653671       4.62218662       8.31861349       1.20490540       6.31459637       6.50706125       5.66774998       1.42734384
         5.03194581       7.71078741       7.83421660       9.98024323       5.78506884       1.53649717       6.02566165       8.71731053       8.21757020       1.06677743
         4.76363915       7.89893901       8.40104684       7.71540675       4.17191500       8.98039598       4.76515947       8.57027473       2.86947509       6.41279478
         9.32141087       7.35402441       5.29709081       3.48214366       3.09822787       2.79269209       6.24369721       1.42041757       7.67815774       6.82173356
         9.73472135       4.09206654       4.76253768       6.78030563       9.28512316       6.11506304       4.73373433       9.18775712       9.82746539       7.70705226
         9.67495807       1.21448203       4.88870592       2.83251802       6.56365786       4.05754285       7.58958928       7.04245067       1.09842130       9.82482037
         7.75152458       8.48966402       8.72876000       4.86404410       8.49051474       1.75121147       8.62008089       5.52273399       4.52248016       4.35068819
         4.81855444       8.42230462       2.21206491       8.86430244       1.51231361       7.49834521       2.53198608       7.84002203       5.21355071       4.85291089
END griddata

