# File generated by Flopy version 3.10.0.dev5 on 01/30/2026 at 12:54:44.
BEGIN options
  TIME_UNITS  days
END options

BEGIN dimensions
  NPER  1
END dimensions

BEGIN perioddata
      27.00000000  27       1.00000000
END perioddata

