# File generated by Flopy version 3.10.0.dev5 on 01/30/2026 at 12:54:41.
BEGIN options
  auxiliary  CONCENTRATION
END options

BEGIN dimensions
  MAXBOUND  1
END dimensions

BEGIN period  1
  1 1 1 5.92000000E-03 5.00000000E-02
END period  1

BEGIN period  2
  1 1 1 5.92000000E-03 0.00000000E+00
END period  2

