# File generated by Flopy version 3.8.0 on 05/07/2026 at 20:46:12.
BEGIN options
  SAVE_FLOWS
END options

BEGIN griddata
  icelltype
    CONSTANT  0
  k
    INTERNAL  FACTOR  1.0
         3.64445421       7.96039608       3.12842335       2.18630742       1.84520892       5.19054913       2.87073628       2.46262613       9.19268379       7.48615721
         3.88443578       9.07723473       2.26011727       1.86928374       5.34789852       4.80183446       2.06194053       2.34190930       3.56594224       4.54855578
         9.22050112       9.18411997       3.50836739       3.27041902       5.52207478       1.47287257       7.69756783       9.07983837       3.21263354       9.52550573
         4.59990533       4.65349500       4.66160515       1.95758739       6.79937508       6.11919197       7.46492829       8.33309871       3.58415023       6.94378252
         3.78103686       5.83468254       4.12184016       7.92267162       3.27731968       8.89894563       2.94095758       7.14081424       7.78664614       6.80565629
         5.38583155       5.52246151       3.36719916       7.57598910       5.49991696       8.10855863       2.46616328       8.56797012       4.85931023       7.36019389
         5.19391864       7.94360297       8.08145697       8.02452809       7.15542031       6.00420772       3.57302891       4.91423166       4.99474334       6.59888781
         7.55205028       2.43603112       1.61158709       9.94381208       2.77227921       8.45634457       4.04519856       7.89177877       8.89607547       7.40344666
         5.18639270       8.95648420       4.52649186       7.71303816       2.13245589       9.97041578       7.79500304       3.50773201       4.15824534       3.25893643
         9.81077722       8.57208983       8.99406993       9.27058287       9.88008605       9.33669327       2.28906023       7.36174498       2.30909706       4.52614015
END griddata

