# File generated by Flopy version 3.10.0 on 05/09/2026 at 08:54:31.
BEGIN options
END options

BEGIN timing
  TDIS6  test_model.tdis
END timing

BEGIN models
  gwf6  test_model.nam  test_model
END models

BEGIN exchanges
END exchanges

BEGIN solutiongroup  1
  ims6  test_model.ims  test_model
END solutiongroup  1

