# File generated by Flopy version 3.10.0 on 05/09/2026 at 08:54:31.
BEGIN options
  SAVE_FLOWS
END options

BEGIN packages
  DIS6  test_model.dis  dis
  STO6  test_model.sto  sto
  NPF6  test_model.npf  npf
  IC6  test_model.ic  ic
  CHD6  test_model.chd  chd_0
  OC6  test_model.oc  oc
END packages

