# File generated by Flopy version 3.10.0 on 05/09/2026 at 08:54:31.
BEGIN options
  HEAD  FILEOUT  test_model.hds
END options

BEGIN period  1
  SAVE  HEAD  LAST
END period  1

