# File generated by Flopy version 3.10.0 on 05/09/2026 at 08:54:31.
BEGIN options
  PRINT_OPTION  all
END options

BEGIN nonlinear
  OUTER_DVCLOSE  1.00000000E-06
  OUTER_MAXIMUM  1000
END nonlinear

