# File generated by Flopy version 3.10.0 on 05/09/2026 at 08:54:31.
BEGIN options
END options

BEGIN dimensions
  MAXBOUND  20
END dimensions

BEGIN period  1
  1 1 1 1.00000000E+02
  1 1 10 9.00000000E+01
  1 2 1 1.00000000E+02
  1 2 10 9.00000000E+01
  1 3 1 1.00000000E+02
  1 3 10 9.00000000E+01
  1 4 1 1.00000000E+02
  1 4 10 9.00000000E+01
  1 5 1 1.00000000E+02
  1 5 10 9.00000000E+01
  1 6 1 1.00000000E+02
  1 6 10 9.00000000E+01
  1 7 1 1.00000000E+02
  1 7 10 9.00000000E+01
  1 8 1 1.00000000E+02
  1 8 10 9.00000000E+01
  1 9 1 1.00000000E+02
  1 9 10 9.00000000E+01
  1 10 1 1.00000000E+02
  1 10 10 9.00000000E+01
END period  1

