# File generated by Flopy version 3.10.0 on 05/09/2026 at 08:54:31.
BEGIN options
END options

BEGIN griddata
  iconvert
    CONSTANT  0
  ss
    CONSTANT  1.00000000E-05
  sy
    CONSTANT       0.10000000
END griddata

BEGIN period  1
  STEADY-STATE
END period  1

