# File generated by Flopy version 3.10.0 on 05/09/2026 at 08:54:31.
BEGIN options
END options

BEGIN griddata
  icelltype
    CONSTANT  1
  k
    CONSTANT       5.00000000
END griddata

