# File generated by Flopy version 3.10.0 on 05/09/2026 at 08:54:31.
BEGIN options
  TIME_UNITS  days
END options

BEGIN dimensions
  NPER  1
END dimensions

BEGIN perioddata
    1000.00000000  1       1.00000000
END perioddata

