# File generated by Flopy version 3.10.0.dev5 on 01/30/2026 at 12:54:49.
BEGIN options
  auxiliary  CONCENTRATION
  PRINT_INPUT
  PRINT_FLOWS
END options

BEGIN dimensions
  MAXBOUND  2
END dimensions

BEGIN period  1
  1 4 7 1.00000000E-03 5.78700000E+01
  1 11 7 -1.89000000E-02 0.00000000E+00
END period  1

BEGIN period  2
  1 4 7 1.00000000E-03 0.00000000E+00
  1 11 7 -1.89000000E-02 0.00000000E+00
END period  2

