# File generated by Flopy version 3.10.0.dev5 on 01/30/2026 at 12:54:49.
BEGIN options
  SAVE_FLOWS
END options

BEGIN packages
  DIS6  gwf-p09-mf6.dis  dis
  IC6  gwf-p09-mf6.ic  ic
  NPF6  gwf-p09-mf6.npf  npf
  STO6  gwf-p09-mf6.sto  sto
  CHD6  gwf-p09-mf6.chd  chd-1
  WEL6  gwf-p09-mf6.wel  wel-1
  OC6  gwf-p09-mf6.oc  oc
END packages

