# File generated by Flopy version 3.10.0.dev5 on 01/30/2026 at 12:53:58.
BEGIN options
END options

BEGIN griddata
  strt  LAYERED
    CONSTANT       3.05000000
    CONSTANT       9.14000000
END griddata

