# File generated by Flopy version 3.10.0.dev5 on 01/30/2026 at 12:53:34.
BEGIN options
  XT3D_OFF
END options

BEGIN griddata
  alh
    CONSTANT       0.10000000
  ath1
    CONSTANT       0.01000000
  ktw
    CONSTANT   50112.00000000
  kts
    INTERNAL  FACTOR  1.0
    2.59200000E+05  2.59200000E+05  1.20960000E+05  1.20960000E+05  2.59200000E+05  1.20960000E+05  1.20960000E+05  1.20960000E+05  1.20960000E+05  2.59200000E+05  1.20960000E+05  2.59200000E+05  2.59200000E+05  1.20960000E+05  1.20960000E+05  2.59200000E+05  2.59200000E+05  1.20960000E+05  2.59200000E+05  1.20960000E+05
    2.59200000E+05  2.59200000E+05  1.20960000E+05  1.20960000E+05  1.20960000E+05  2.59200000E+05  1.20960000E+05  1.20960000E+05  2.59200000E+05  1.20960000E+05  1.20960000E+05  1.20960000E+05  1.20960000E+05  1.20960000E+05  1.20960000E+05  1.20960000E+05  1.20960000E+05  2.59200000E+05  2.59200000E+05  1.20960000E+05
    1.20960000E+05  2.59200000E+05  1.20960000E+05  1.20960000E+05  2.59200000E+05  2.59200000E+05  1.20960000E+05  1.20960000E+05  1.20960000E+05  1.20960000E+05  1.20960000E+05  1.20960000E+05  2.59200000E+05  1.20960000E+05  2.59200000E+05  1.20960000E+05  2.59200000E+05  1.20960000E+05  1.20960000E+05  1.20960000E+05
    1.20960000E+05  1.20960000E+05  1.20960000E+05  1.20960000E+05  1.20960000E+05  1.20960000E+05  1.20960000E+05  1.20960000E+05  1.20960000E+05  1.20960000E+05  1.20960000E+05  2.59200000E+05  1.20960000E+05  1.20960000E+05  1.20960000E+05  1.20960000E+05  1.20960000E+05  1.20960000E+05  1.20960000E+05  1.20960000E+05
    1.20960000E+05  2.59200000E+05  2.59200000E+05  1.20960000E+05  1.20960000E+05  1.20960000E+05  1.20960000E+05  1.20960000E+05  1.20960000E+05  1.20960000E+05  1.20960000E+05  1.20960000E+05  1.20960000E+05  1.20960000E+05  2.59200000E+05  2.59200000E+05  1.20960000E+05  1.20960000E+05  1.20960000E+05  1.20960000E+05
    1.20960000E+05  1.20960000E+05  1.20960000E+05  1.20960000E+05  1.20960000E+05  2.59200000E+05  2.59200000E+05  2.59200000E+05  1.20960000E+05  2.59200000E+05  2.59200000E+05  2.59200000E+05  2.59200000E+05  2.59200000E+05  2.59200000E+05  2.59200000E+05  2.59200000E+05  2.59200000E+05  2.59200000E+05  2.59200000E+05
    1.20960000E+05  2.59200000E+05  2.59200000E+05  2.59200000E+05  2.59200000E+05  2.59200000E+05  2.59200000E+05  2.59200000E+05  2.59200000E+05  2.59200000E+05  2.59200000E+05  2.59200000E+05  1.20960000E+05  2.59200000E+05  2.59200000E+05  2.59200000E+05  2.59200000E+05  2.59200000E+05  2.59200000E+05  2.59200000E+05
    2.59200000E+05  2.59200000E+05  2.59200000E+05  2.59200000E+05  2.59200000E+05  2.59200000E+05  2.59200000E+05  2.59200000E+05  2.59200000E+05  2.59200000E+05  2.59200000E+05  2.59200000E+05  2.59200000E+05  2.59200000E+05  2.59200000E+05  2.59200000E+05  2.59200000E+05  2.59200000E+05  2.59200000E+05  2.59200000E+05
    2.59200000E+05  2.59200000E+05  2.59200000E+05  2.59200000E+05  2.59200000E+05  2.59200000E+05  2.59200000E+05  2.59200000E+05  2.59200000E+05  2.59200000E+05  2.59200000E+05  2.59200000E+05  2.59200000E+05  2.59200000E+05  2.59200000E+05  2.59200000E+05  2.59200000E+05  2.59200000E+05  2.59200000E+05  2.59200000E+05
    2.59200000E+05  2.59200000E+05  2.59200000E+05  2.59200000E+05  2.59200000E+05  2.59200000E+05  2.59200000E+05  2.59200000E+05  2.59200000E+05  2.59200000E+05  2.59200000E+05  2.59200000E+05  2.59200000E+05  2.59200000E+05  2.59200000E+05  2.59200000E+05  2.59200000E+05  2.59200000E+05  2.59200000E+05  2.59200000E+05
    2.59200000E+05  2.59200000E+05  2.59200000E+05  2.59200000E+05  2.59200000E+05  2.59200000E+05  2.59200000E+05  2.59200000E+05  2.59200000E+05  2.59200000E+05  2.59200000E+05  2.59200000E+05  2.59200000E+05  2.59200000E+05  2.59200000E+05  2.59200000E+05  2.59200000E+05  2.59200000E+05  2.59200000E+05  2.59200000E+05
    2.59200000E+05  2.59200000E+05  2.59200000E+05  2.59200000E+05  2.59200000E+05  2.59200000E+05  2.59200000E+05  2.59200000E+05  2.59200000E+05  2.59200000E+05  2.59200000E+05  2.59200000E+05  2.59200000E+05  2.59200000E+05  2.59200000E+05  2.59200000E+05  2.59200000E+05  2.59200000E+05  2.59200000E+05  2.59200000E+05
    2.59200000E+05  2.59200000E+05  2.59200000E+05  2.59200000E+05  2.59200000E+05  2.59200000E+05  2.59200000E+05  1.20960000E+05  2.59200000E+05  2.59200000E+05  2.59200000E+05  2.59200000E+05  2.59200000E+05  2.59200000E+05  2.59200000E+05  2.59200000E+05  2.59200000E+05  2.59200000E+05  2.59200000E+05  2.59200000E+05
    2.59200000E+05  2.59200000E+05  2.59200000E+05  2.59200000E+05  2.59200000E+05  2.59200000E+05  2.59200000E+05  2.59200000E+05  2.59200000E+05  2.59200000E+05  2.59200000E+05  2.59200000E+05  2.59200000E+05  2.59200000E+05  2.59200000E+05  2.59200000E+05  2.59200000E+05  2.59200000E+05  2.59200000E+05  2.59200000E+05
    2.59200000E+05  2.59200000E+05  2.59200000E+05  2.59200000E+05  2.59200000E+05  2.59200000E+05  2.59200000E+05  2.59200000E+05  2.59200000E+05  2.59200000E+05  2.59200000E+05  2.59200000E+05  2.59200000E+05  2.59200000E+05  2.59200000E+05  2.59200000E+05  2.59200000E+05  2.59200000E+05  2.59200000E+05  2.59200000E+05
    2.59200000E+05  2.59200000E+05  2.59200000E+05  2.59200000E+05  2.59200000E+05  2.59200000E+05  2.59200000E+05  2.59200000E+05  2.59200000E+05  2.59200000E+05  2.59200000E+05  2.59200000E+05  2.59200000E+05  2.59200000E+05  2.59200000E+05  2.59200000E+05  2.59200000E+05  2.59200000E+05  2.59200000E+05  2.59200000E+05
    2.59200000E+05  2.59200000E+05  2.59200000E+05  2.59200000E+05  2.59200000E+05  2.59200000E+05  2.59200000E+05  2.59200000E+05  2.59200000E+05  2.59200000E+05  2.59200000E+05  2.59200000E+05  2.59200000E+05  2.59200000E+05  2.59200000E+05  2.59200000E+05  2.59200000E+05  2.59200000E+05  2.59200000E+05  2.59200000E+05
    2.59200000E+05  2.59200000E+05  2.59200000E+05  2.59200000E+05  2.59200000E+05  2.59200000E+05  2.59200000E+05  2.59200000E+05  2.59200000E+05  2.59200000E+05  2.59200000E+05  2.59200000E+05  2.59200000E+05  2.59200000E+05  2.59200000E+05  2.59200000E+05  2.59200000E+05  2.59200000E+05  2.59200000E+05  2.59200000E+05
    2.59200000E+05  2.59200000E+05  2.59200000E+05  2.59200000E+05  2.59200000E+05  2.59200000E+05  2.59200000E+05  2.59200000E+05  2.59200000E+05  2.59200000E+05  2.59200000E+05  2.59200000E+05  2.59200000E+05  2.59200000E+05  2.59200000E+05  2.59200000E+05  1.20960000E+05  2.59200000E+05  2.59200000E+05  2.59200000E+05
    2.59200000E+05  2.59200000E+05  2.59200000E+05  2.59200000E+05  2.59200000E+05  2.59200000E+05  2.59200000E+05  2.59200000E+05  2.59200000E+05  2.59200000E+05  2.59200000E+05  2.59200000E+05  2.59200000E+05  2.59200000E+05  2.59200000E+05  2.59200000E+05  2.59200000E+05  2.59200000E+05  2.59200000E+05  2.59200000E+05
    2.59200000E+05  2.59200000E+05  2.59200000E+05  2.59200000E+05  2.59200000E+05  2.59200000E+05  1.20960000E+05  2.59200000E+05  2.59200000E+05  2.59200000E+05  2.59200000E+05  2.59200000E+05  2.59200000E+05  2.59200000E+05  2.59200000E+05  2.59200000E+05  2.59200000E+05  2.59200000E+05  2.59200000E+05  2.59200000E+05
    2.59200000E+05  2.59200000E+05  2.59200000E+05  2.59200000E+05  2.59200000E+05  1.20960000E+05  2.59200000E+05  2.59200000E+05  2.59200000E+05  2.59200000E+05  2.59200000E+05  2.59200000E+05  2.59200000E+05  2.59200000E+05  2.59200000E+05  2.59200000E+05  2.59200000E+05  2.59200000E+05  2.59200000E+05  2.59200000E+05
    2.59200000E+05  2.59200000E+05  2.59200000E+05  2.59200000E+05  2.59200000E+05  1.20960000E+05  2.59200000E+05  2.59200000E+05  2.59200000E+05  2.59200000E+05  2.59200000E+05  2.59200000E+05  2.59200000E+05  2.59200000E+05  2.59200000E+05  2.59200000E+05  2.59200000E+05  2.59200000E+05  2.59200000E+05  2.59200000E+05
    2.59200000E+05  2.59200000E+05  2.59200000E+05  2.59200000E+05  2.59200000E+05  2.59200000E+05  2.59200000E+05  2.59200000E+05  2.59200000E+05  2.59200000E+05  2.59200000E+05  2.59200000E+05  2.59200000E+05  2.59200000E+05  2.59200000E+05  2.59200000E+05  2.59200000E+05  2.59200000E+05  2.59200000E+05  2.59200000E+05
    2.59200000E+05  2.59200000E+05  2.59200000E+05  2.59200000E+05  2.59200000E+05  2.59200000E+05  2.59200000E+05  2.59200000E+05  2.59200000E+05  2.59200000E+05  2.59200000E+05  2.59200000E+05  2.59200000E+05  2.59200000E+05  2.59200000E+05  2.59200000E+05  2.59200000E+05  2.59200000E+05  2.59200000E+05  2.59200000E+05
    2.59200000E+05  2.59200000E+05  2.59200000E+05  2.59200000E+05  2.59200000E+05  2.59200000E+05  2.59200000E+05  1.20960000E+05  2.59200000E+05  2.59200000E+05  2.59200000E+05  2.59200000E+05  2.59200000E+05  2.59200000E+05  1.20960000E+05  2.59200000E+05  2.59200000E+05  2.59200000E+05  2.59200000E+05  2.59200000E+05
    2.59200000E+05  2.59200000E+05  2.59200000E+05  1.20960000E+05  2.59200000E+05  2.59200000E+05  2.59200000E+05  2.59200000E+05  2.59200000E+05  2.59200000E+05  2.59200000E+05  2.59200000E+05  2.59200000E+05  2.59200000E+05  2.59200000E+05  2.59200000E+05  2.59200000E+05  2.59200000E+05  2.59200000E+05  2.59200000E+05
    2.59200000E+05  2.59200000E+05  2.59200000E+05  2.59200000E+05  2.59200000E+05  2.59200000E+05  2.59200000E+05  2.59200000E+05  2.59200000E+05  2.59200000E+05  2.59200000E+05  2.59200000E+05  2.59200000E+05  1.20960000E+05  2.59200000E+05  1.20960000E+05  2.59200000E+05  2.59200000E+05  2.59200000E+05  2.59200000E+05
    2.59200000E+05  2.59200000E+05  2.59200000E+05  2.59200000E+05  2.59200000E+05  2.59200000E+05  2.59200000E+05  2.59200000E+05  2.59200000E+05  1.20960000E+05  2.59200000E+05  2.59200000E+05  2.59200000E+05  2.59200000E+05  2.59200000E+05  2.59200000E+05  2.59200000E+05  2.59200000E+05  2.59200000E+05  2.59200000E+05
    2.59200000E+05  2.59200000E+05  2.59200000E+05  2.59200000E+05  2.59200000E+05  2.59200000E+05  2.59200000E+05  2.59200000E+05  2.59200000E+05  2.59200000E+05  2.59200000E+05  1.20960000E+05  1.20960000E+05  1.20960000E+05  1.20960000E+05  1.20960000E+05  2.59200000E+05  2.59200000E+05  2.59200000E+05  2.59200000E+05
    2.59200000E+05  2.59200000E+05  2.59200000E+05  2.59200000E+05  1.20960000E+05  1.20960000E+05  2.59200000E+05  2.59200000E+05  2.59200000E+05  2.59200000E+05  2.59200000E+05  2.59200000E+05  2.59200000E+05  1.20960000E+05  2.59200000E+05  2.59200000E+05  2.59200000E+05  2.59200000E+05  2.59200000E+05  2.59200000E+05
    2.59200000E+05  2.59200000E+05  2.59200000E+05  2.59200000E+05  2.59200000E+05  2.59200000E+05  2.59200000E+05  2.59200000E+05  2.59200000E+05  2.59200000E+05  1.20960000E+05  1.20960000E+05  2.59200000E+05  2.59200000E+05  1.20960000E+05  1.20960000E+05  2.59200000E+05  2.59200000E+05  2.59200000E+05  2.59200000E+05
    2.59200000E+05  2.59200000E+05  2.59200000E+05  2.59200000E+05  2.59200000E+05  2.59200000E+05  2.59200000E+05  2.59200000E+05  2.59200000E+05  2.59200000E+05  2.59200000E+05  2.59200000E+05  2.59200000E+05  2.59200000E+05  2.59200000E+05  2.59200000E+05  2.59200000E+05  2.59200000E+05  2.59200000E+05  1.20960000E+05
    2.59200000E+05  2.59200000E+05  2.59200000E+05  2.59200000E+05  2.59200000E+05  2.59200000E+05  2.59200000E+05  2.59200000E+05  2.59200000E+05  2.59200000E+05  1.20960000E+05  1.20960000E+05  1.20960000E+05  1.20960000E+05  2.59200000E+05  2.59200000E+05  2.59200000E+05  2.59200000E+05  2.59200000E+05  2.59200000E+05
    2.59200000E+05  2.59200000E+05  2.59200000E+05  2.59200000E+05  2.59200000E+05  2.59200000E+05  2.59200000E+05  2.59200000E+05  2.59200000E+05  2.59200000E+05  2.59200000E+05  2.59200000E+05  2.59200000E+05  2.59200000E+05  2.59200000E+05  2.59200000E+05  2.59200000E+05  2.59200000E+05  2.59200000E+05  2.59200000E+05
    2.59200000E+05  2.59200000E+05  2.59200000E+05  2.59200000E+05  2.59200000E+05  2.59200000E+05  2.59200000E+05  2.59200000E+05  2.59200000E+05  2.59200000E+05  2.59200000E+05  2.59200000E+05  2.59200000E+05  2.59200000E+05  2.59200000E+05  2.59200000E+05  2.59200000E+05  2.59200000E+05  2.59200000E+05  2.59200000E+05
    2.59200000E+05  2.59200000E+05  2.59200000E+05  2.59200000E+05  2.59200000E+05  2.59200000E+05  2.59200000E+05  2.59200000E+05  2.59200000E+05  2.59200000E+05  2.59200000E+05  2.59200000E+05  2.59200000E+05  1.20960000E+05  2.59200000E+05  2.59200000E+05  2.59200000E+05  2.59200000E+05  2.59200000E+05  2.59200000E+05
    2.59200000E+05  2.59200000E+05  2.59200000E+05  2.59200000E+05  2.59200000E+05  2.59200000E+05  2.59200000E+05  2.59200000E+05  1.20960000E+05  2.59200000E+05  2.59200000E+05  2.59200000E+05  2.59200000E+05  2.59200000E+05  2.59200000E+05  2.59200000E+05  2.59200000E+05  2.59200000E+05  2.59200000E+05  2.59200000E+05
    2.59200000E+05  2.59200000E+05  2.59200000E+05  2.59200000E+05  2.59200000E+05  2.59200000E+05  2.59200000E+05  2.59200000E+05  2.59200000E+05  2.59200000E+05  2.59200000E+05  2.59200000E+05  2.59200000E+05  2.59200000E+05  2.59200000E+05  2.59200000E+05  2.59200000E+05  2.59200000E+05  2.59200000E+05  2.59200000E+05
    2.59200000E+05  2.59200000E+05  2.59200000E+05  2.59200000E+05  2.59200000E+05  2.59200000E+05  2.59200000E+05  2.59200000E+05  2.59200000E+05  2.59200000E+05  2.59200000E+05  2.59200000E+05  2.59200000E+05  2.59200000E+05  2.59200000E+05  2.59200000E+05  1.20960000E+05  2.59200000E+05  2.59200000E+05  2.59200000E+05
    2.59200000E+05  2.59200000E+05  2.59200000E+05  1.20960000E+05  2.59200000E+05  2.59200000E+05  2.59200000E+05  2.59200000E+05  2.59200000E+05  1.20960000E+05  2.59200000E+05  2.59200000E+05  2.59200000E+05  2.59200000E+05  2.59200000E+05  2.59200000E+05  2.59200000E+05  2.59200000E+05  2.59200000E+05  2.59200000E+05
    2.59200000E+05  2.59200000E+05  2.59200000E+05  2.59200000E+05  2.59200000E+05  2.59200000E+05  2.59200000E+05  2.59200000E+05  2.59200000E+05  2.59200000E+05  2.59200000E+05  2.59200000E+05  2.59200000E+05  2.59200000E+05  2.59200000E+05  2.59200000E+05  2.59200000E+05  2.59200000E+05  2.59200000E+05  2.59200000E+05
    2.59200000E+05  2.59200000E+05  2.59200000E+05  2.59200000E+05  2.59200000E+05  2.59200000E+05  2.59200000E+05  2.59200000E+05  2.59200000E+05  2.59200000E+05  2.59200000E+05  2.59200000E+05  2.59200000E+05  2.59200000E+05  2.59200000E+05  2.59200000E+05  2.59200000E+05  2.59200000E+05  2.59200000E+05  2.59200000E+05
    2.59200000E+05  2.59200000E+05  2.59200000E+05  2.59200000E+05  2.59200000E+05  2.59200000E+05  2.59200000E+05  2.59200000E+05  2.59200000E+05  2.59200000E+05  2.59200000E+05  2.59200000E+05  2.59200000E+05  1.20960000E+05  2.59200000E+05  2.59200000E+05  2.59200000E+05  1.20960000E+05  2.59200000E+05  2.59200000E+05
    2.59200000E+05  2.59200000E+05  2.59200000E+05  2.59200000E+05  2.59200000E+05  2.59200000E+05  2.59200000E+05  2.59200000E+05  2.59200000E+05  2.59200000E+05  2.59200000E+05  2.59200000E+05  2.59200000E+05  2.59200000E+05  2.59200000E+05  2.59200000E+05  2.59200000E+05  2.59200000E+05  2.59200000E+05  1.20960000E+05
    1.20960000E+05  1.20960000E+05  1.20960000E+05  1.20960000E+05  2.59200000E+05  2.59200000E+05  2.59200000E+05  2.59200000E+05  2.59200000E+05  2.59200000E+05  2.59200000E+05  2.59200000E+05  2.59200000E+05  2.59200000E+05  2.59200000E+05  2.59200000E+05  2.59200000E+05  2.59200000E+05  2.59200000E+05  2.59200000E+05
    2.59200000E+05  1.20960000E+05  2.59200000E+05  2.59200000E+05  1.20960000E+05  1.20960000E+05  2.59200000E+05  2.59200000E+05  2.59200000E+05  2.59200000E+05  2.59200000E+05  2.59200000E+05  2.59200000E+05  2.59200000E+05  1.20960000E+05  2.59200000E+05  2.59200000E+05  2.59200000E+05  2.59200000E+05  2.59200000E+05
    2.59200000E+05  2.59200000E+05  1.20960000E+05  2.59200000E+05  2.59200000E+05  2.59200000E+05  2.59200000E+05  2.59200000E+05  2.59200000E+05  2.59200000E+05  2.59200000E+05  2.59200000E+05  2.59200000E+05  2.59200000E+05  2.59200000E+05  2.59200000E+05  2.59200000E+05  2.59200000E+05  2.59200000E+05  2.59200000E+05
    2.59200000E+05  2.59200000E+05  2.59200000E+05  2.59200000E+05  2.59200000E+05  2.59200000E+05  2.59200000E+05  2.59200000E+05  2.59200000E+05  2.59200000E+05  2.59200000E+05  2.59200000E+05  2.59200000E+05  2.59200000E+05  2.59200000E+05  2.59200000E+05  2.59200000E+05  2.59200000E+05  2.59200000E+05  2.59200000E+05
    2.59200000E+05  2.59200000E+05  2.59200000E+05  2.59200000E+05  2.59200000E+05  2.59200000E+05  2.59200000E+05  2.59200000E+05  2.59200000E+05  2.59200000E+05  2.59200000E+05  2.59200000E+05  2.59200000E+05  2.59200000E+05  2.59200000E+05  2.59200000E+05  2.59200000E+05  2.59200000E+05  2.59200000E+05  2.59200000E+05
    1.20960000E+05  2.59200000E+05  2.59200000E+05  2.59200000E+05  2.59200000E+05  2.59200000E+05  2.59200000E+05  2.59200000E+05  2.59200000E+05  2.59200000E+05  2.59200000E+05  2.59200000E+05  2.59200000E+05  2.59200000E+05  2.59200000E+05  2.59200000E+05  2.59200000E+05  2.59200000E+05  2.59200000E+05  2.59200000E+05
    2.59200000E+05  2.59200000E+05  2.59200000E+05  2.59200000E+05  2.59200000E+05  2.59200000E+05  2.59200000E+05  2.59200000E+05  2.59200000E+05  2.59200000E+05  2.59200000E+05  2.59200000E+05  2.59200000E+05  2.59200000E+05  2.59200000E+05  1.20960000E+05  2.59200000E+05  2.59200000E+05  1.20960000E+05  2.59200000E+05
    2.59200000E+05  2.59200000E+05  2.59200000E+05  1.20960000E+05  2.59200000E+05  2.59200000E+05  2.59200000E+05  1.20960000E+05  1.20960000E+05  1.20960000E+05  1.20960000E+05  1.20960000E+05  2.59200000E+05  1.20960000E+05  2.59200000E+05  2.59200000E+05  2.59200000E+05  2.59200000E+05  2.59200000E+05  1.20960000E+05
    2.59200000E+05  2.59200000E+05  2.59200000E+05  2.59200000E+05  2.59200000E+05  2.59200000E+05  2.59200000E+05  2.59200000E+05  2.59200000E+05  2.59200000E+05  2.59200000E+05  2.59200000E+05  2.59200000E+05  2.59200000E+05  2.59200000E+05  1.20960000E+05  2.59200000E+05  2.59200000E+05  2.59200000E+05  2.59200000E+05
    2.59200000E+05  2.59200000E+05  2.59200000E+05  2.59200000E+05  2.59200000E+05  2.59200000E+05  2.59200000E+05  2.59200000E+05  2.59200000E+05  2.59200000E+05  2.59200000E+05  2.59200000E+05  2.59200000E+05  2.59200000E+05  1.20960000E+05  1.20960000E+05  2.59200000E+05  2.59200000E+05  2.59200000E+05  2.59200000E+05
    2.59200000E+05  1.20960000E+05  2.59200000E+05  2.59200000E+05  2.59200000E+05  2.59200000E+05  2.59200000E+05  2.59200000E+05  2.59200000E+05  2.59200000E+05  2.59200000E+05  2.59200000E+05  2.59200000E+05  2.59200000E+05  2.59200000E+05  2.59200000E+05  2.59200000E+05  2.59200000E+05  2.59200000E+05  2.59200000E+05
    2.59200000E+05  2.59200000E+05  2.59200000E+05  2.59200000E+05  2.59200000E+05  2.59200000E+05  2.59200000E+05  2.59200000E+05  2.59200000E+05  2.59200000E+05  2.59200000E+05  2.59200000E+05  2.59200000E+05  2.59200000E+05  2.59200000E+05  2.59200000E+05  2.59200000E+05  2.59200000E+05  2.59200000E+05  2.59200000E+05
    2.59200000E+05  2.59200000E+05  2.59200000E+05  2.59200000E+05  2.59200000E+05  2.59200000E+05  2.59200000E+05  2.59200000E+05  1.20960000E+05  2.59200000E+05  2.59200000E+05  2.59200000E+05  2.59200000E+05  2.59200000E+05  2.59200000E+05  2.59200000E+05  2.59200000E+05  2.59200000E+05  2.59200000E+05  2.59200000E+05
    2.59200000E+05  1.20960000E+05  2.59200000E+05  2.59200000E+05  2.59200000E+05  2.59200000E+05  2.59200000E+05  2.59200000E+05  2.59200000E+05  1.20960000E+05  1.20960000E+05  1.20960000E+05  1.20960000E+05  1.20960000E+05  2.59200000E+05  2.59200000E+05  2.59200000E+05  1.20960000E+05  1.20960000E+05  1.20960000E+05
    1.20960000E+05  1.20960000E+05  1.20960000E+05  1.20960000E+05  2.59200000E+05  2.59200000E+05  2.59200000E+05  2.59200000E+05  2.59200000E+05  2.59200000E+05  2.59200000E+05  2.59200000E+05  2.59200000E+05  2.59200000E+05  2.59200000E+05  2.59200000E+05  2.59200000E+05  2.59200000E+05  2.59200000E+05  2.59200000E+05
    2.59200000E+05  2.59200000E+05  2.59200000E+05  2.59200000E+05  2.59200000E+05  2.59200000E+05  2.59200000E+05  2.59200000E+05  2.59200000E+05  2.59200000E+05  2.59200000E+05  2.59200000E+05  2.59200000E+05  2.59200000E+05  2.59200000E+05  2.59200000E+05  2.59200000E+05  2.59200000E+05  2.59200000E+05  1.20960000E+05
    1.20960000E+05  1.20960000E+05  1.20960000E+05  1.20960000E+05  2.59200000E+05  2.59200000E+05  1.20960000E+05  1.20960000E+05  2.59200000E+05  2.59200000E+05  1.20960000E+05  1.20960000E+05  2.59200000E+05  2.59200000E+05  2.59200000E+05  2.59200000E+05  2.59200000E+05  2.59200000E+05  2.59200000E+05  2.59200000E+05
    2.59200000E+05  2.59200000E+05  2.59200000E+05  2.59200000E+05  2.59200000E+05  2.59200000E+05  2.59200000E+05  2.59200000E+05  2.59200000E+05  2.59200000E+05  1.20960000E+05  1.20960000E+05  2.59200000E+05  2.59200000E+05  2.59200000E+05  2.59200000E+05  2.59200000E+05  2.59200000E+05  2.59200000E+05  2.59200000E+05
    2.59200000E+05  2.59200000E+05  2.59200000E+05  2.59200000E+05  1.20960000E+05  1.20960000E+05  2.59200000E+05  2.59200000E+05  1.20960000E+05  1.20960000E+05  1.20960000E+05  1.20960000E+05  2.59200000E+05  2.59200000E+05  2.59200000E+05  2.59200000E+05  2.59200000E+05  2.59200000E+05  2.59200000E+05  2.59200000E+05
    2.59200000E+05  2.59200000E+05  2.59200000E+05  2.59200000E+05  2.59200000E+05  2.59200000E+05  2.59200000E+05  1.20960000E+05  2.59200000E+05  2.59200000E+05  2.59200000E+05  2.59200000E+05  2.59200000E+05  1.20960000E+05  2.59200000E+05  2.59200000E+05  2.59200000E+05  1.20960000E+05  2.59200000E+05  2.59200000E+05
    2.59200000E+05  2.59200000E+05  2.59200000E+05  2.59200000E+05  2.59200000E+05  2.59200000E+05  2.59200000E+05  2.59200000E+05  2.59200000E+05  2.59200000E+05  2.59200000E+05  2.59200000E+05  2.59200000E+05  2.59200000E+05  2.59200000E+05  2.59200000E+05  2.59200000E+05  2.59200000E+05  2.59200000E+05  2.59200000E+05
    2.59200000E+05  2.59200000E+05  2.59200000E+05  2.59200000E+05  2.59200000E+05  2.59200000E+05  2.59200000E+05  2.59200000E+05  2.59200000E+05  2.59200000E+05  2.59200000E+05  2.59200000E+05  2.59200000E+05  2.59200000E+05  2.59200000E+05  2.59200000E+05  2.59200000E+05  1.20960000E+05  1.20960000E+05  1.20960000E+05
    2.59200000E+05  2.59200000E+05  2.59200000E+05  2.59200000E+05  2.59200000E+05  2.59200000E+05  2.59200000E+05  2.59200000E+05  2.59200000E+05  2.59200000E+05  2.59200000E+05  2.59200000E+05  1.20960000E+05  1.20960000E+05  2.59200000E+05  2.59200000E+05  2.59200000E+05  2.59200000E+05  2.59200000E+05  2.59200000E+05
    2.59200000E+05  2.59200000E+05  2.59200000E+05  2.59200000E+05  2.59200000E+05  2.59200000E+05  2.59200000E+05  1.20960000E+05  1.20960000E+05  2.59200000E+05  2.59200000E+05  2.59200000E+05  2.59200000E+05  2.59200000E+05  2.59200000E+05  2.59200000E+05  1.20960000E+05  1.20960000E+05  2.59200000E+05  2.59200000E+05
    2.59200000E+05  2.59200000E+05  2.59200000E+05  2.59200000E+05  2.59200000E+05  2.59200000E+05  2.59200000E+05  2.59200000E+05  2.59200000E+05  2.59200000E+05  2.59200000E+05  2.59200000E+05  2.59200000E+05  2.59200000E+05  2.59200000E+05  2.59200000E+05  2.59200000E+05  2.59200000E+05  1.20960000E+05  2.59200000E+05
    2.59200000E+05  1.20960000E+05  1.20960000E+05  1.20960000E+05  2.59200000E+05  1.20960000E+05  2.59200000E+05  2.59200000E+05  2.59200000E+05  2.59200000E+05  2.59200000E+05  1.20960000E+05  2.59200000E+05  2.59200000E+05  2.59200000E+05  2.59200000E+05  2.59200000E+05  2.59200000E+05  2.59200000E+05  2.59200000E+05
    2.59200000E+05  2.59200000E+05  2.59200000E+05  2.59200000E+05  2.59200000E+05  2.59200000E+05  2.59200000E+05  2.59200000E+05  2.59200000E+05  2.59200000E+05  2.59200000E+05  2.59200000E+05  2.59200000E+05  2.59200000E+05  2.59200000E+05  2.59200000E+05  2.59200000E+05  2.59200000E+05  2.59200000E+05  1.20960000E+05
    1.20960000E+05  2.59200000E+05  2.59200000E+05  2.59200000E+05  2.59200000E+05  2.59200000E+05  2.59200000E+05  2.59200000E+05  2.59200000E+05  2.59200000E+05  2.59200000E+05  2.59200000E+05  2.59200000E+05  2.59200000E+05  2.59200000E+05  2.59200000E+05  2.59200000E+05  2.59200000E+05  2.59200000E+05  2.59200000E+05
    2.59200000E+05  2.59200000E+05  2.59200000E+05  2.59200000E+05  2.59200000E+05  2.59200000E+05  2.59200000E+05  2.59200000E+05  2.59200000E+05  2.59200000E+05  2.59200000E+05  2.59200000E+05  2.59200000E+05  2.59200000E+05  2.59200000E+05  2.59200000E+05  2.59200000E+05  2.59200000E+05  2.59200000E+05  2.59200000E+05
    2.59200000E+05  2.59200000E+05  2.59200000E+05  2.59200000E+05  2.59200000E+05  2.59200000E+05  2.59200000E+05  2.59200000E+05  2.59200000E+05  2.59200000E+05  2.59200000E+05  2.59200000E+05  2.59200000E+05  2.59200000E+05  2.59200000E+05  2.59200000E+05  2.59200000E+05  2.59200000E+05  2.59200000E+05  2.59200000E+05
    2.59200000E+05  2.59200000E+05  2.59200000E+05  2.59200000E+05  2.59200000E+05  2.59200000E+05  2.59200000E+05  2.59200000E+05  2.59200000E+05  2.59200000E+05  2.59200000E+05  2.59200000E+05  2.59200000E+05  2.59200000E+05  2.59200000E+05  2.59200000E+05  2.59200000E+05  2.59200000E+05  2.59200000E+05  2.59200000E+05
    2.59200000E+05  2.59200000E+05  2.59200000E+05  2.59200000E+05  2.59200000E+05  2.59200000E+05  2.59200000E+05  2.59200000E+05  2.59200000E+05  2.59200000E+05  2.59200000E+05  2.59200000E+05  2.59200000E+05  2.59200000E+05  2.59200000E+05  1.20960000E+05  2.59200000E+05  2.59200000E+05  2.59200000E+05  2.59200000E+05
    2.59200000E+05  2.59200000E+05  2.59200000E+05  2.59200000E+05  2.59200000E+05  2.59200000E+05  2.59200000E+05  2.59200000E+05  2.59200000E+05  2.59200000E+05  2.59200000E+05  2.59200000E+05  2.59200000E+05  2.59200000E+05  2.59200000E+05  2.59200000E+05  2.59200000E+05  1.20960000E+05  1.20960000E+05  2.59200000E+05
    2.59200000E+05  2.59200000E+05  2.59200000E+05  2.59200000E+05  2.59200000E+05  2.59200000E+05  2.59200000E+05  2.59200000E+05  2.59200000E+05  2.59200000E+05  2.59200000E+05  2.59200000E+05  2.59200000E+05  2.59200000E+05  2.59200000E+05  2.59200000E+05  2.59200000E+05  2.59200000E+05  2.59200000E+05  2.59200000E+05
    2.59200000E+05  2.59200000E+05  2.59200000E+05  2.59200000E+05  2.59200000E+05  2.59200000E+05  2.59200000E+05  2.59200000E+05  2.59200000E+05  2.59200000E+05  2.59200000E+05  2.59200000E+05  2.59200000E+05  2.59200000E+05  2.59200000E+05  2.59200000E+05  2.59200000E+05  2.59200000E+05  2.59200000E+05  2.59200000E+05
    2.59200000E+05  2.59200000E+05  2.59200000E+05  2.59200000E+05  2.59200000E+05  2.59200000E+05  2.59200000E+05  2.59200000E+05  2.59200000E+05  2.59200000E+05  2.59200000E+05  2.59200000E+05  2.59200000E+05  2.59200000E+05  2.59200000E+05  2.59200000E+05  2.59200000E+05  2.59200000E+05  2.59200000E+05  2.59200000E+05
    2.59200000E+05  2.59200000E+05  2.59200000E+05  2.59200000E+05  2.59200000E+05  2.59200000E+05  2.59200000E+05  2.59200000E+05  2.59200000E+05  2.59200000E+05  2.59200000E+05  2.59200000E+05  2.59200000E+05  2.59200000E+05  2.59200000E+05  2.59200000E+05  2.59200000E+05  2.59200000E+05  2.59200000E+05  2.59200000E+05
    2.59200000E+05  2.59200000E+05  2.59200000E+05  2.59200000E+05  2.59200000E+05  2.59200000E+05  2.59200000E+05  2.59200000E+05  2.59200000E+05  2.59200000E+05  2.59200000E+05  2.59200000E+05  2.59200000E+05  2.59200000E+05  1.20960000E+05  2.59200000E+05  2.59200000E+05  2.59200000E+05  2.59200000E+05  2.59200000E+05
    2.59200000E+05  2.59200000E+05  2.59200000E+05  2.59200000E+05  2.59200000E+05  2.59200000E+05  2.59200000E+05  2.59200000E+05  2.59200000E+05  2.59200000E+05  2.59200000E+05  2.59200000E+05  2.59200000E+05  2.59200000E+05  2.59200000E+05  2.59200000E+05  2.59200000E+05  2.59200000E+05  2.59200000E+05  1.20960000E+05
    2.59200000E+05  2.59200000E+05  2.59200000E+05  2.59200000E+05  2.59200000E+05  2.59200000E+05  2.59200000E+05  2.59200000E+05  2.59200000E+05  2.59200000E+05  2.59200000E+05  2.59200000E+05  2.59200000E+05  2.59200000E+05  2.59200000E+05  2.59200000E+05  2.59200000E+05  2.59200000E+05  2.59200000E+05  2.59200000E+05
    2.59200000E+05  2.59200000E+05  2.59200000E+05  2.59200000E+05  2.59200000E+05  2.59200000E+05  2.59200000E+05  2.59200000E+05  2.59200000E+05  2.59200000E+05  2.59200000E+05  1.20960000E+05  2.59200000E+05  2.59200000E+05  2.59200000E+05  2.59200000E+05  2.59200000E+05  2.59200000E+05  2.59200000E+05  2.59200000E+05
    2.59200000E+05  2.59200000E+05  2.59200000E+05  2.59200000E+05  2.59200000E+05  2.59200000E+05  2.59200000E+05  2.59200000E+05  2.59200000E+05  2.59200000E+05  2.59200000E+05  2.59200000E+05  2.59200000E+05  2.59200000E+05  2.59200000E+05  2.59200000E+05  2.59200000E+05  2.59200000E+05  2.59200000E+05  2.59200000E+05
    2.59200000E+05  2.59200000E+05  2.59200000E+05  1.20960000E+05  2.59200000E+05  2.59200000E+05  2.59200000E+05  2.59200000E+05  2.59200000E+05  1.20960000E+05  2.59200000E+05  2.59200000E+05  2.59200000E+05  2.59200000E+05  2.59200000E+05  2.59200000E+05  2.59200000E+05  2.59200000E+05  2.59200000E+05  2.59200000E+05
    2.59200000E+05  2.59200000E+05  2.59200000E+05  2.59200000E+05  2.59200000E+05  2.59200000E+05  1.20960000E+05  2.59200000E+05  2.59200000E+05  2.59200000E+05  2.59200000E+05  2.59200000E+05  2.59200000E+05  2.59200000E+05  2.59200000E+05  2.59200000E+05  2.59200000E+05  2.59200000E+05  2.59200000E+05  2.59200000E+05
    2.59200000E+05  2.59200000E+05  2.59200000E+05  1.20960000E+05  2.59200000E+05  2.59200000E+05  2.59200000E+05  2.59200000E+05  2.59200000E+05  2.59200000E+05  2.59200000E+05  1.20960000E+05  2.59200000E+05  2.59200000E+05  2.59200000E+05  2.59200000E+05  2.59200000E+05  2.59200000E+05  2.59200000E+05  2.59200000E+05
    2.59200000E+05  2.59200000E+05  2.59200000E+05  2.59200000E+05  2.59200000E+05  2.59200000E+05  2.59200000E+05  2.59200000E+05  2.59200000E+05  2.59200000E+05  1.20960000E+05  1.20960000E+05  2.59200000E+05  2.59200000E+05  1.20960000E+05  1.20960000E+05  1.20960000E+05  1.20960000E+05  1.20960000E+05  2.59200000E+05
    2.59200000E+05  2.59200000E+05  2.59200000E+05  2.59200000E+05  2.59200000E+05  2.59200000E+05  2.59200000E+05  2.59200000E+05  2.59200000E+05  2.59200000E+05  2.59200000E+05  2.59200000E+05  2.59200000E+05  2.59200000E+05  2.59200000E+05  2.59200000E+05  2.59200000E+05  2.59200000E+05  2.59200000E+05  2.59200000E+05