# File generated by Flopy version 3.10.0.dev5 on 01/30/2026 at 12:54:24.
BEGIN options
  SAVE_FLOWS
END options

BEGIN packages
  NPF6  gwf_voronoi.npf  npf
  IC6  gwf_voronoi.ic  ic
  DISV6  gwf_voronoi.disv  disv
  OC6  gwf_voronoi.oc  oc
  CHD6  gwf_voronoi.chd  chd_0
  RCH6  gwf_voronoi.rch  rch_0
END packages

