# File generated by Flopy version 3.8.0 on 05/07/2026 at 20:45:29.
BEGIN options
  SAVE_FLOWS
END options

BEGIN griddata
  icelltype
    CONSTANT  0
  k
    INTERNAL  FACTOR  1.0
         4.04801638       1.73347677       3.75531247       7.31155565       2.83833614       4.35362836       3.93266019       5.76865419       8.77059470       8.34999979
         2.89287736       3.88939239       9.30082652       4.46572413       8.78478779       8.10072649       9.68372356       6.23784215       2.72251585       8.58063803
         6.58010185       4.36156728       2.85372137       6.07677113       3.40088471       4.02233677       9.67885340       6.26631673       7.29476115       6.98255011
         5.62748506       8.66437804       2.63266530       7.32412260       5.22193320       6.09870271       6.35855742       7.75797082       4.20455194       5.98191833
         1.77483443       1.55016591       5.99091115       3.22943218       5.42366050       6.50202309       6.09568309       9.02572790       3.58746256       3.75870975
         4.79882816       3.96346778       4.59559081       4.65584234       6.35538584       6.09905592       9.67598616       7.97184356       9.66047020       6.87452966
         8.89740210       1.49348091       2.19854158       3.93171249       3.99607203       9.66815924       5.83792290       5.01242298       8.62408629       3.52986186
         6.50486670       3.77386488       3.72912805       1.69395672       3.64118548       4.71088180       2.90897900       1.33241522       9.54243875       1.64959798
         3.55814224       3.06158654       7.98568525       7.69365653       9.07905345       5.20328186       7.95273541       5.19081204       2.19308784       7.59808846
         5.43828143       3.79760191       1.04169344       9.17823037       7.36330383       6.88059132       2.41941986       6.63787332       5.95763479       9.63087142
END griddata

