# File generated by Flopy version 3.8.0 on 05/07/2026 at 20:44:08.
BEGIN options
  SAVE_FLOWS
END options

BEGIN packages
  DIS6  hydro_sim2real.dis  dis
  NPF6  hydro_sim2real.npf  npf
  IC6  hydro_sim2real.ic  ic
  CHD6  hydro_sim2real.chd  chd_0
  OC6  hydro_sim2real.oc  oc
END packages

