# File generated by Flopy version 3.10.0.dev5 on 01/30/2026 at 12:54:59.
BEGIN options
  SAVE_FLOWS
END options

BEGIN packages
  DIS6  flow.dis  dis
  NPF6  flow.npf  npf
  STO6  flow.sto  sto
  IC6  flow.ic  ic
  BUY6  flow.buy  buy
  CHD6  flow.chd  chd-1
  RCH6  flow.rch  rch-1
  OC6  flow.oc  oc
END packages

