# File generated by Flopy version 3.10.0.dev5 on 01/30/2026 at 12:53:35.
BEGIN options
  DENSITY_WATER    1000.00000000
  HEAT_CAPACITY_WATER    5000.00000000
  LATENT_HEAT_VAPORIZATION  2.45350000E+06
END options

BEGIN griddata
  porosity
    CONSTANT       0.25000000
  heat_capacity_solid
    CONSTANT     500.00000000
  density_solid
    CONSTANT    2000.00000000
END griddata

