# File generated by Flopy version 3.10.0.dev5 on 01/30/2026 at 12:53:35.
BEGIN options
  BUDGET  FILEOUT  gwe-barends.cbc
  TEMPERATURE  FILEOUT  gwe-barends.ucn
  TEMPERATURE  PRINT_FORMAT  COLUMNS  10  WIDTH  15  DIGITS  6  GENERAL
END options

BEGIN period  1
  SAVE  TEMPERATURE  LAST
  SAVE  BUDGET  LAST
  PRINT  BUDGET  LAST
END period  1

