# File generated by Flopy version 3.10.0.dev5 on 01/30/2026 at 12:53:35.
BEGIN options
END options

BEGIN packages
  DIS6  gwe-barends.dis  dis
  IC6  gwe-barends.ic  ic-gwe
  ADV6  gwe-barends.adv  adv
  CND6  gwe-barends.cnd  cnd
  EST6  gwe-barends.est  est
  CTP6  gwe-barends.ctp  ctp
  SSM6  gwe-barends.ssm  ssm
  OC6  gwe-barends.oc  oc
  FMI6  gwe-barends.fmi  fmi
END packages

