# File generated by Flopy version 3.10.0 on 05/09/2026 at 09:47:37.
BEGIN options
END options

BEGIN timing
  TDIS6  sim_model_0520.tdis
END timing

BEGIN models
  gwf6  sim_model_0520.nam  sim_model_0520
END models

BEGIN exchanges
END exchanges

BEGIN solutiongroup  1
  ims6  sim_model_0520.ims  sim_model_0520
END solutiongroup  1

