# File generated by Flopy version 3.10.0.dev5 on 01/30/2026 at 12:53:46.
BEGIN options
  BUDGET  FILEOUT  ex-gwf-hanix.cbc
  HEAD  FILEOUT  ex-gwf-hanix.hds
END options

BEGIN period  1
  SAVE  HEAD  ALL
  SAVE  BUDGET  ALL
END period  1

