# File generated by Flopy version 3.10.0.dev5 on 01/30/2026 at 12:54:27.
BEGIN options
END options

BEGIN timing
  TDIS6  ex-gwt-adv-schemes.tdis
END timing

BEGIN models
  gwt6  gwt_v_sin2_cen.nam  gwt_v_sin2_cen
END models

BEGIN exchanges
END exchanges

BEGIN solutiongroup  1
  ims6  ex-gwt-adv-schemes.ims  gwt_v_sin2_cen
END solutiongroup  1

