# File generated by Flopy version 3.10.0 on 05/09/2026 at 09:47:43.
BEGIN options
END options

BEGIN timing
  TDIS6  sim_model_0600.tdis
END timing

BEGIN models
  gwf6  sim_model_0600.nam  sim_model_0600
END models

BEGIN exchanges
END exchanges

BEGIN solutiongroup  1
  ims6  sim_model_0600.ims  sim_model_0600
END solutiongroup  1

