# File generated by Flopy version 3.8.0 on 05/07/2026 at 20:45:56.
BEGIN options
  SAVE_FLOWS
END options

BEGIN griddata
  icelltype
    CONSTANT  0
  k
    INTERNAL  FACTOR  1.0
         9.25514081       7.65623162       1.04243136       6.37987250       6.99582904       4.37605399       2.94597605       6.57639881       9.05072899       3.52450220
         9.76840022       9.33200563       2.96356410       7.89531888       3.75564551       5.88495127       6.75245685       4.25988433       1.80566928       2.10009043
         4.71695337       6.62288192       4.32684549       9.59614666       4.43847549       8.70985032       2.10588701       9.93067287       5.45302509       6.97032432
         2.88619521       3.47229866       3.61542023       4.36753741       2.03311657       6.61556654       3.15570937       5.81644718       3.38473581       7.64601906
         4.15899648       9.26242408       2.46131147       6.37424116       7.30636328       7.51820947       6.51937210       5.24635145       9.13966415       1.13608062
         7.35971785       7.84293815       8.68594792       4.09155446       9.08483264       5.74283482       4.04853056       9.70675829       6.54544734       3.59150183
         6.14730889       1.87469045       2.75381404       9.91824826       8.89271407       6.77231045       5.31404123       7.25284128       2.30050931       2.38347926
         6.34509981       4.48035509       1.63369029       6.94073136       1.75500448       9.88200235       5.22855983       4.04611866       4.72142003       7.00572992
         2.91784440       3.94185484       5.42923874       2.96120032       8.47377258       7.78557365       9.82609569       4.17800207       6.06235734       5.06950906
         9.95913378       5.26675748       3.79209031       2.05800220       4.37960415       9.60791345       2.39951302       6.79832700       3.15974811       5.26919734
END griddata

