# File generated by Flopy version 3.10.0.dev5 on 01/30/2026 at 12:54:24.
BEGIN options
END options

BEGIN dimensions
  MAXBOUND  126
END dimensions

BEGIN period  1
  1 21 -3.30623590E-01
  1 32 -2.31464791E-01
  1 38 -3.01698893E-01
  1 40 -3.12102303E-01
  1 44 -2.26274170E-01
  1 65 -2.78387330E-01
  1 77 -3.99082536E-01
  1 100 -3.14273239E-01
  1 114 -2.31464791E-01
  1 122 -3.26889821E-01
  1 141 -2.62862260E-01
  1 167 -3.65251402E-01
  1 266 -3.14273239E-01
  1 273 -3.45327243E-01
  1 277 -3.57172016E-01
  1 280 -3.01540228E-01
  1 581 -2.58866720E-01
  1 626 2.52741763E-01
  1 688 -3.50364366E-01
  1 696 -3.01677418E-01
  1 698 -2.68308410E-01
  1 699 -3.06816267E-01
  1 722 2.47313069E-01
  1 731 -4.36979536E-01
  1 875 -2.26902171E-01
  1 876 -2.57797418E-01
  1 885 -2.57797418E-01
  1 906 -2.67413252E-01
  1 907 -2.41916734E-01
  1 918 -4.04800780E-01
  1 921 -3.68699803E-01
  1 922 -2.68452797E-01
  1 923 -3.28661969E-01
  1 984 3.72574711E-01
  1 985 2.13037238E-01
  1 994 3.46326619E-01
  1 1001 2.04398035E-01
  1 1004 3.09645254E-01
  1 1035 2.13625947E-01
  1 1079 -2.54624050E-01
  1 1097 3.30969979E-01
  1 1106 2.86261092E-01
  1 1130 -2.60207999E-01
  1 1135 -3.10643367E-01
  1 1139 -2.75464952E-01
  1 1142 -3.01425503E-01
  1 1200 -2.34178604E-01
  1 1223 -3.12270073E-01
  1 1380 2.80728820E-01
  1 1426 2.24078235E-01
  1 1457 -2.38307957E-01
  1 1459 -2.61865600E-01
  1 1465 -2.77348059E-01
  1 1470 -4.06441920E-01
  1 1478 -4.18489789E-01
  1 1481 -3.17941483E-01
  1 1504 -2.46270939E-01
  1 1506 -2.04043349E-01
  1 1577 3.61161764E-01
  1 1592 -2.21639738E-01
  1 1594 -3.20953214E-01
  1 1674 2.84696834E-01
  1 1741 -2.43160957E-01
  1 1765 3.03548371E-01
  1 1798 -1.97204601E-01
  1 1818 -3.58045195E-01
  1 1822 -2.90108997E-01
  1 1831 2.12080967E-01
  1 1836 -1.97139932E-01
  1 1844 -1.95970184E-01
  1 1848 2.01747703E-01
  1 1856 2.92370033E-01
  1 1858 2.68259125E-01
  1 1861 -2.45864481E-01
  1 1864 2.40417004E-01
  1 1910 3.20102684E-01
  1 1927 0.00000000E+00
  1 1930 3.67376857E-01
  1 1937 -2.11968178E-01
  1 1938 -3.36207028E-01
  1 1961 -2.98834098E-01
  1 1973 3.66900201E-01
  1 1974 -3.25582359E-01
  1 2061 3.82795175E-01
  1 2066 2.42141718E-01
  1 2088 2.07360711E-01
  1 2118 2.25066536E-01
  1 2126 2.68657894E-01
  1 2130 2.08704438E-01
  1 2206 2.30635008E-01
  1 2211 3.66188402E-01
  1 2214 4.04508231E-01
  1 2260 2.27356949E-01
  1 2316 2.60442403E-01
  1 2319 2.72631549E-01
  1 2320 2.71294427E-01
  1 2326 3.61476789E-01
  1 2331 3.03368568E-01
  1 2334 2.91056352E-01
  1 2341 2.41160293E-01
  1 2343 2.91105484E-01
  1 2383 2.57845693E-01
  1 2384 2.61256051E-01
  1 2399 2.45436411E-01
  1 2403 5.79827561E-01
  1 2406 3.26213524E-01
  1 2409 2.53352719E-01
  1 2410 2.45436411E-01
  1 2414 2.45033904E-01
  1 2433 2.55845989E-01
  1 2446 2.99178738E-01
  1 2455 2.05769661E-01
  1 2456 2.75305851E-01
  1 2484 1.84564221E-01
  1 2486 2.67628325E-01
  1 2495 3.80896633E-01
  1 2503 3.15266568E-01
  1 2525 3.11934931E-01
  1 2529 2.09945189E-01
  1 2532 2.95265307E-01
  1 2580 -2.26274170E-01
  1 2588 -2.84282402E-01
  1 2589 0.00000000E+00
  1 2592 3.03280149E-01
  1 2603 -3.68699803E-01
  1 2621 2.12277201E-01
END period  1

