# File generated by Flopy version 3.10.0.dev5 on 01/30/2026 at 12:54:04.
BEGIN options
  SAVE_FLOWS
END options

BEGIN packages
  DIS6  inner.dis  dis
  IC6  inner.ic  ic
  NPF6  inner.npf  npf
  OC6  inner.oc  oc
END packages

