# File generated by Flopy version 3.10.0 on 05/09/2026 at 09:47:41.
BEGIN options
  SAVE_FLOWS
END options

BEGIN packages
  DIS6  sim_model_0566.dis  dis
  STO6  sim_model_0566.sto  sto
  NPF6  sim_model_0566.npf  npf
  IC6  sim_model_0566.ic  ic
  CHD6  sim_model_0566.chd  chd_0
  OC6  sim_model_0566.oc  oc
END packages

