# File generated by Flopy version 3.10.0.dev5 on 01/30/2026 at 12:54:34.
BEGIN options
  EXIT_SOLVE_TOLERANCE  1.00000000E-05
  LOCAL_Z
END options

BEGIN dimensions
  NRELEASEPTS  24
  NRELEASETIMES  1
END dimensions

BEGIN packagedata
  1  1 1 169    4212.50000000       0.50000000       0.50000000
  2  1 1 170    4237.50000000       0.50000000       0.50000000
  3  1 1 171    4262.50000000       0.50000000       0.50000000
  4  1 1 172    4287.50000000       0.50000000       0.50000000
  5  1 1 173    4312.50000000       0.50000000       0.50000000
  6  1 1 174    4337.50000000       0.50000000       0.50000000
  7  1 1 175    4362.50000000       0.50000000       0.50000000
  8  1 1 176    4387.50000000       0.50000000       0.50000000
  9  1 1 177    4412.50000000       0.50000000       0.50000000
  10  1 1 178    4437.50000000       0.50000000       0.50000000
  11  1 1 179    4462.50000000       0.50000000       0.50000000
  12  1 1 180    4487.50000000       0.50000000       0.50000000
  13  1 1 181    4512.50000000       0.50000000       0.50000000
  14  1 1 182    4537.50000000       0.50000000       0.50000000
  15  1 1 183    4562.50000000       0.50000000       0.50000000
  16  1 1 184    4587.50000000       0.50000000       0.50000000
  17  1 1 185    4612.50000000       0.50000000       0.50000000
  18  1 1 186    4637.50000000       0.50000000       0.50000000
  19  1 1 187    4662.50000000       0.50000000       0.50000000
  20  1 1 188    4687.50000000       0.50000000       0.50000000
  21  1 1 189    4712.50000000       0.50000000       0.50000000
  22  1 1 190    4737.50000000       0.50000000       0.50000000
  23  1 1 191    4762.50000000       0.50000000       0.50000000
  24  1 1 192    4787.50000000       0.50000000       0.50000000
END packagedata

BEGIN releasetimes
       0.00000000
END releasetimes

