# File generated by Flopy version 3.10.0.dev5 on 01/30/2026 at 12:54:34.
BEGIN options
END options

BEGIN packagedata
  GWFGRID  FILEIN  ../mf6gwf/flow.dis.grb
  GWFHEAD  FILEIN  ../mf6gwf/flow.hds
  GWFBUDGET  FILEIN  ../mf6gwf/flow.bud
END packagedata

