# File generated by Flopy version 3.8.0 on 05/07/2026 at 20:44:53.
BEGIN options
END options

BEGIN timing
  TDIS6  hydro_sim2real.tdis
END timing

BEGIN models
  gwf6  hydro_sim2real.nam  hydro_sim2real
END models

BEGIN exchanges
END exchanges

BEGIN solutiongroup  1
  ims6  hydro_sim2real.ims  hydro_sim2real
END solutiongroup  1

