# File generated by Flopy version 3.10.0.dev5 on 01/30/2026 at 12:55:20.
BEGIN options
  PRINT_INPUT
END options

BEGIN continuous  FILEOUT  ex-gwf-sfr-psa.sfr.obs.csv
  inflow-ext  ext-inflow  1
  inflow  inflow  25
  outflow  outflow  25
  stage  stage  25
  depth  depth  25
END continuous  FILEOUT  ex-gwf-sfr-psa.sfr.obs.csv

