# File generated by Flopy version 3.8.0 on 05/07/2026 at 20:44:29.
BEGIN options
END options

BEGIN dimensions
  MAXBOUND  20
END dimensions

BEGIN period  1
  1 1 1 100
  1 1 10 90
  1 2 1 100
  1 2 10 90
  1 3 1 100
  1 3 10 90
  1 4 1 100
  1 4 10 90
  1 5 1 100
  1 5 10 90
  1 6 1 100
  1 6 10 90
  1 7 1 100
  1 7 10 90
  1 8 1 100
  1 8 10 90
  1 9 1 100
  1 9 10 90
  1 10 1 100
  1 10 10 90
END period  1

