# File generated by Flopy version 3.10.0.dev5 on 01/30/2026 at 12:54:24.
BEGIN options
END options

BEGIN dimensions
  MAXBOUND  99
END dimensions

BEGIN period  1
  1 1       0.00000000
  1 51       0.00000000
  1 101       0.00000000
  1 151       0.00000000
  1 201       0.00000000
  1 251       0.00000000
  1 301       0.00000000
  1 351       0.00000000
  1 401       0.00000000
  1 451       0.00000000
  1 501       0.00000000
  1 551       0.00000000
  1 601       0.00000000
  1 651       0.00000000
  1 701       0.00000000
  1 751       0.00000000
  1 801       0.00000000
  1 851       0.00000000
  1 901       0.00000000
  1 951       0.00000000
  1 1001       0.00000000
  1 1051       0.00000000
  1 1101       0.00000000
  1 1151       0.00000000
  1 1201       0.00000000
  1 1251       0.00000000
  1 1301       0.00000000
  1 1351       0.00000000
  1 1401       0.00000000
  1 1451       0.00000000
  1 1501       0.00000000
  1 1551       0.00000000
  1 1601       0.00000000
  1 1651       0.00000000
  1 1701       0.00000000
  1 1751       0.00000000
  1 1801       0.00000000
  1 1851       0.00000000
  1 1901       0.00000000
  1 1951       0.00000000
  1 2001       0.00000000
  1 2051       0.00000000
  1 2101       1.00000000
  1 2151       1.00000000
  1 2201       1.00000000
  1 2251       1.00000000
  1 2301       1.00000000
  1 2351       1.00000000
  1 2401       1.00000000
  1 2451       1.00000000
  1 2452       1.00000000
  1 2453       1.00000000
  1 2454       1.00000000
  1 2455       1.00000000
  1 2456       1.00000000
  1 2457       1.00000000
  1 2458       1.00000000
  1 2459       0.00000000
  1 2460       0.00000000
  1 2461       0.00000000
  1 2462       0.00000000
  1 2463       0.00000000
  1 2464       0.00000000
  1 2465       0.00000000
  1 2466       0.00000000
  1 2467       0.00000000
  1 2468       0.00000000
  1 2469       0.00000000
  1 2470       0.00000000
  1 2471       0.00000000
  1 2472       0.00000000
  1 2473       0.00000000
  1 2474       0.00000000
  1 2475       0.00000000
  1 2476       0.00000000
  1 2477       0.00000000
  1 2478       0.00000000
  1 2479       0.00000000
  1 2480       0.00000000
  1 2481       0.00000000
  1 2482       0.00000000
  1 2483       0.00000000
  1 2484       0.00000000
  1 2485       0.00000000
  1 2486       0.00000000
  1 2487       0.00000000
  1 2488       0.00000000
  1 2489       0.00000000
  1 2490       0.00000000
  1 2491       0.00000000
  1 2492       0.00000000
  1 2493       0.00000000
  1 2494       0.00000000
  1 2495       0.00000000
  1 2496       0.00000000
  1 2497       0.00000000
  1 2498       0.00000000
  1 2499       0.00000000
  1 2500       0.00000000
END period  1

