# File generated by Flopy version 3.10.0 on 05/09/2026 at 09:47:45.
BEGIN options
  SAVE_FLOWS
END options

BEGIN packages
  DIS6  sim_model_0617.dis  dis
  STO6  sim_model_0617.sto  sto
  NPF6  sim_model_0617.npf  npf
  IC6  sim_model_0617.ic  ic
  CHD6  sim_model_0617.chd  chd_0
  OC6  sim_model_0617.oc  oc
END packages

