# File generated by Flopy version 3.10.0.dev5 on 01/30/2026 at 12:54:35.
BEGIN options
  SORPTION  linear
END options

BEGIN griddata
  porosity
    CONSTANT       0.10000000
  bulk_density
    CONSTANT       1.00000000
  distcoef
    CONSTANT       0.10000000
END griddata

