# File generated by Flopy version 3.10.0.dev5 on 01/30/2026 at 12:55:09.
BEGIN options
END options

BEGIN packages
  DIS6  trans.dis  dis
  MST6  trans.mst  mst
  IC6  trans.ic  ic
  ADV6  trans.adv  adv
  DSP6  trans.dsp  dsp
  SSM6  trans.ssm  ssm
  CNC6  trans.cnc  cnc_0
  OC6  trans.oc  oc
END packages

