# File generated by Flopy version 3.10.0.dev5 on 01/30/2026 at 12:53:40.
BEGIN options
  SAVE_FLOWS
END options

BEGIN packages
  DISV6  gwf-geotherm.disv  disv
  NPF6  gwf-geotherm.npf  npf
  IC6  gwf-geotherm.ic  ic
  STO6  gwf-geotherm.sto  sto
  CHD6  ex-gwe-geotherm.left.chd  chd-left
  CHD6  ex-gwe-geotherm.right.chd  chd-right
  OC6  gwf-geotherm.oc  oc
END packages

