# File generated by Flopy version 3.10.0.dev5 on 01/30/2026 at 12:54:54.
BEGIN options
  DIGITS  7
  PRINT_INPUT
END options

BEGIN continuous  FILEOUT  flow.sfr.obs.csv
  reach1leakage  SFR  SEG1
  reach2leakage  SFR  SEG2
  reach3leakage  SFR  SEG3
  reach4leakage  SFR  SEG4
END continuous  FILEOUT  flow.sfr.obs.csv

