# File generated by Flopy version 3.10.0.dev5 on 01/30/2026 at 12:54:02.
BEGIN options
  SAVE_FLOWS
END options

BEGIN packages
  DIS6  ex-gwt-vsc-01.dis  dis
  IC6  ex-gwt-vsc-01.ic  ic
  ADV6  ex-gwt-vsc-01.adv  adv
  DSP6  ex-gwt-vsc-01.dsp  dsp
  MST6  ex-gwt-vsc-01.mst  mst
  CNC6  ex-gwt-vsc-01.cnc  cnc-1
  SSM6  ex-gwt-vsc-01.ssm  ssm
  OC6  ex-gwt-vsc-01.oc  oc
END packages

