# File generated by Flopy version 3.10.0.dev5 on 01/30/2026 at 12:54:02.
BEGIN options
  SAVE_FLOWS
END options

BEGIN packages
  DIS6  ex-gwf-vsc-02.dis  dis
  NPF6  ex-gwf-vsc-02.npf  npf
  IC6  ex-gwf-vsc-02.ic  ic
  STO6  ex-gwf-vsc-02.sto  sto
  WEL6  ex-gwf-vsc-02.wel  wel-1
  CHD6  ex-gwf-vsc-02.left.chd  chd-l
  CHD6  ex-gwf-vsc-02.right.chd  chd-r
  VSC6  ex-gwf-vsc-02.vsc  vsc
  OC6  ex-gwf-vsc-02.oc  oc
END packages

