# File generated by Flopy version 3.10.0.dev5 on 01/30/2026 at 12:54:05.
BEGIN options
END options

BEGIN timing
  TDIS6  ex-gwf-whirl.tdis
END timing

BEGIN models
  gwf6  ex-gwf-whirl.nam  ex-gwf-whirl
END models

BEGIN exchanges
END exchanges

BEGIN solutiongroup  1
  ims6  ex-gwf-whirl.ims  ex-gwf-whirl
END solutiongroup  1

