# File generated by Flopy version 3.10.0 on 05/09/2026 at 09:47:24.
BEGIN options
  SAVE_FLOWS
END options

BEGIN packages
  DIS6  sim_model_0353.dis  dis
  STO6  sim_model_0353.sto  sto
  NPF6  sim_model_0353.npf  npf
  IC6  sim_model_0353.ic  ic
  CHD6  sim_model_0353.chd  chd_0
  OC6  sim_model_0353.oc  oc
END packages

