# File generated by Flopy version 3.10.0.dev5 on 01/30/2026 at 12:53:45.
BEGIN options
  STORAGECOEFFICIENT
END options

BEGIN griddata
  iconvert
    CONSTANT  0
  ss
    CONSTANT  1.00000000E-06
END griddata

BEGIN period  1
  TRANSIENT
END period  1

