# File generated by Flopy version 3.10.0.dev5 on 01/30/2026 at 12:53:45.
BEGIN options
  TS6  FILEIN  ex-gwf-fhb.wel.ts
END options

BEGIN dimensions
  MAXBOUND  1
END dimensions

BEGIN period  1
  1 2 1 FLOWRATE
END period  1

