# File generated by Flopy version 3.10.0.dev5 on 01/30/2026 at 12:53:45.
BEGIN options
  SAVE_SPECIFIC_DISCHARGE
END options

BEGIN griddata
  icelltype
    CONSTANT  0
  k
    CONSTANT      20.00000000
END griddata

