# File generated by Flopy version 3.10.0 on 05/09/2026 at 09:48:08.
BEGIN options
END options

BEGIN timing
  TDIS6  sim_model_0907.tdis
END timing

BEGIN models
  gwf6  sim_model_0907.nam  sim_model_0907
END models

BEGIN exchanges
END exchanges

BEGIN solutiongroup  1
  ims6  sim_model_0907.ims  sim_model_0907
END solutiongroup  1

