# File generated by Flopy version 3.10.0.dev5 on 01/30/2026 at 12:54:59.
BEGIN options
END options

BEGIN griddata
  iconvert
    CONSTANT  0
  ss
    CONSTANT  3.80000000E-10
  sy
    CONSTANT       0.15000000
END griddata

