# File generated by Flopy version 3.10.0.dev5 on 01/30/2026 at 12:54:59.
BEGIN options
END options

BEGIN griddata
  strt
    CONSTANT  8.40000000E-05
END griddata

