# File generated by Flopy version 3.10.0.dev5 on 01/30/2026 at 12:54:59.
BEGIN options
END options

BEGIN dimensions
  MAXBOUND  67
END dimensions

BEGIN period  1
  1 1 1  1.09977150E-04
  1 1 2  1.09943294E-04
  1 1 3  1.09964715E-04
  1 1 4  1.10067360E-04
  1 1 5  1.09884696E-04
  1 1 6  1.10052067E-04
  1 1 7  1.10052524E-04
  1 1 8  1.09879831E-04
  1 1 9  1.10051459E-04
  1 1 10  1.09935980E-04
  1 1 11  1.10021035E-04
  1 1 12  1.10117319E-04
  1 1 13  1.09897434E-04
  1 1 14  1.09937090E-04
  1 1 15  1.09940227E-04
  1 1 16  1.10045434E-04
  1 1 17  1.09963486E-04
  1 1 18  1.09982633E-04
  1 1 19  1.09985744E-04
  1 1 20  1.09889696E-04
  1 1 21  1.09933041E-04
  1 1 22  1.09896090E-04
  1 1 23  1.10007633E-04
  1 1 24  1.09968704E-04
  1 1 25  1.09960819E-04
  1 1 26  1.09894637E-04
  1 1 27  1.10112977E-04
  1 1 28  1.10057527E-04
  1 1 29  1.10098205E-04
  1 1 30  1.09886294E-04
  1 1 31  1.09930748E-04
  1 1 32  1.10087769E-04
  1 1 33  1.09927331E-04
  1 1 34  1.09892511E-04
  1 1 35  1.09978227E-04
  1 1 36  1.10127160E-04
  1 1 37  1.10102942E-04
  1 1 38  1.09972600E-04
  1 1 39  1.10111102E-04
  1 1 40  1.09975762E-04
  1 1 41  1.10004496E-04
  1 1 42  1.09965067E-04
  1 1 43  1.09913094E-04
  1 1 44  1.09971249E-04
  1 1 45  1.10042745E-04
  1 1 46  1.09909248E-04
  1 1 47  1.10083177E-04
  1 1 48  1.10113240E-04
  1 1 49  1.09961149E-04
  1 1 50  1.09973214E-04
  1 1 51  1.09941860E-04
  1 1 52  1.10005392E-04
  1 1 53  1.10123738E-04
  1 1 54  1.09887513E-04
  1 1 55  1.10064409E-04
  1 1 56  1.10114230E-04
  1 1 57  1.09885459E-04
  1 1 58  1.09981171E-04
  1 1 59  1.10042357E-04
  1 1 60  1.09967327E-04
  1 1 61  1.09876405E-04
  1 1 62  1.09991361E-04
  1 1 63  1.09871678E-04
  1 1 64  1.10080114E-04
  1 1 65  1.10080741E-04
  1 1 66  1.09892833E-04
  1 1 67  1.10009065E-04
END period  1

