# File generated by Flopy version 3.8.0 on 05/07/2026 at 20:45:36.
BEGIN options
END options

BEGIN griddata
  strt
    CONSTANT     100.00000000
END griddata

