# File generated by Flopy version 3.8.0 on 05/07/2026 at 20:45:51.
BEGIN options
  SAVE_FLOWS
END options

BEGIN griddata
  icelltype
    CONSTANT  0
  k
    INTERNAL  FACTOR  1.0
         8.49196504       9.49982747       6.17065044       1.81443368       1.75859991       4.89700031       3.69758700       2.03172381       3.50356707       9.15262448
         7.28208714       5.74321485       2.19240900       5.01280452       6.62480361       4.99347713       8.53895475       4.13094113       8.99964376       9.20305581
         5.01695578       1.46007035       4.20246876       9.70145295       2.84596405       8.99573073       4.23595935       8.29289618       6.68779630       2.26241128
         3.94370348       8.45778377       2.82361333       7.98825761       4.92176007       1.63008492       1.25707136       1.30840607       2.89633042       1.29890447
         4.00395864       1.78158288       1.49584824       4.13519548       2.78666726       6.67357716       5.36817063       7.78107804       6.86900965       6.93399393
         7.95581815       4.26709118       2.28656189       9.57799498       6.12879004       9.90573520       9.86721096       8.12197466       8.35813599       9.30398052
         2.38437632       4.18485838       1.36590063       9.45766999       9.91387681       6.14444698       7.31292447       2.89326802       4.04169001       7.24011686
         1.41573600       1.58616951       7.14872040       5.36473054       1.94121374       4.32524703       7.63333121       6.40296391       7.78542382       7.70574733
         3.53790553       7.28598542       7.63828919       7.91809221       4.14817832       1.62910464       7.17139547       1.04438504       5.23270749       3.20502414
         8.67540089       8.70868529       5.69735219       5.90223249       1.89013724       8.92546706       6.42407167       1.79974003       1.87882459       4.07268239
END griddata

