# File generated by Flopy version 3.8.0 on 05/07/2026 at 20:44:27.
BEGIN options
  SAVE_FLOWS
END options

BEGIN griddata
  icelltype
    CONSTANT  0
  k
    INTERNAL  FACTOR  1.0
         6.67899984       8.94073888       3.32696495       3.82710142       9.42295858       7.70514970       1.05897903       1.17789536       7.17867571       9.60110391
         5.51340884       6.71793598       8.87052526       8.61505565       7.62299914       6.92259527       5.98879373       4.78969815       4.44768589       1.05092047
         8.71594713       7.18143564       9.50117183       6.22092938       1.67723220       3.34821746       5.30078479       4.78759107       5.62669917       5.23782715
         2.29079087       2.87976448       1.00126163       1.49987235       7.40708105       1.24174673       7.25344268       7.14968666       7.38241898       5.65733547
         7.55136325       1.88144809       9.06514426       5.73328052       5.48931564       5.28615179       4.05714647       3.44700575       6.98824374       4.41668235
         9.21749706       7.90155806       6.46477229       9.25821788       6.59924856       5.90876870       6.02221395       1.94087266       7.33240462       1.51134521
         2.19956984       2.60074172       3.51678962       6.28601357       7.23230713       7.32850495       4.69751350       2.43370268       1.53646797       4.81557132
         3.59273688       1.91376247       4.80623674       2.09063624       8.46629599       1.66241526       1.72569743       2.94461203       7.02702976       2.35600771
         1.60880491       1.88097092       7.53196253       3.06274665       8.83809504       4.38799954       8.38711771       9.91671877       7.15271728       8.73996645
         3.88286375       8.04914386       8.72417876       6.34793330       6.54907747       8.86385564       3.96323997       5.75977062       7.02310337       3.55443968
END griddata

