# File generated by Flopy version 3.8.0 on 05/07/2026 at 20:44:58.
BEGIN options
  SAVE_FLOWS
END options

BEGIN griddata
  icelltype
    CONSTANT  0
  k
    INTERNAL  FACTOR  1.0
         3.22531981       4.32413152       2.58366904       7.58803148       9.68344922       6.04333873       8.89781561       7.59010094       7.98503914       6.96684708
         6.41103562       1.41591320       7.16553871       4.89346268       5.16365649       5.32976218       9.18923905       1.31476946       3.57844434       2.58657671
         2.42822528       9.36864250       3.72664007       7.20840109       1.67960606       9.72541959       3.87598077       5.76073475       5.00776971       5.59136545
         3.89368006       6.72829896       7.98499359       4.77254868       7.41562487       3.70102033       9.22924816       6.74716069       4.28546087       5.87976828
         8.14492258       4.02033813       6.95326123       1.23565190       8.58365478       1.30091145       3.51680033       5.82107314       7.70494247       2.78551427
         2.87586296       1.52999615       8.68568290       5.87550926       6.08075142       9.89599075       3.88685212       5.76340605       7.25265574       9.45211568
         9.63058538       7.38188826       6.64289627       2.32247934       8.82212419       2.78388823       1.82522237       3.40748719       3.65392054       3.28259450
         4.45027852       4.89168325       8.41679227       8.86282302       4.75152503       5.67178056       6.02909210       5.40485896       8.70571091       4.16333823
         3.99640072       8.54919388       7.63974922       2.49701830       4.71571069       6.87821146       8.43138148       8.72840644       1.13004250       8.13037666
         8.10047405       3.15321437       7.46066149       2.87809564       6.60624057       3.46087734       6.22614094       7.32652765       5.40809937       1.91933249
END griddata

