# File generated by Flopy version 3.10.0 on 05/09/2026 at 09:47:33.
BEGIN options
END options

BEGIN timing
  TDIS6  sim_model_0467.tdis
END timing

BEGIN models
  gwf6  sim_model_0467.nam  sim_model_0467
END models

BEGIN exchanges
END exchanges

BEGIN solutiongroup  1
  ims6  sim_model_0467.ims  sim_model_0467
END solutiongroup  1

