# File generated by Flopy version 3.8.0 on 05/07/2026 at 20:44:56.
BEGIN options
  SAVE_FLOWS
END options

BEGIN griddata
  icelltype
    CONSTANT  0
  k
    INTERNAL  FACTOR  1.0
         2.90114088       9.00709398       1.29725669       8.60147673       2.69847516       3.32160417       2.53470157       5.25234152       8.73598828       8.95534633
         7.27771252       3.84663393       9.64822952       2.04140276       1.27969092       7.06360705       8.64749091       8.40602515       8.67321709       3.74683740
         1.43957168       2.62458426       3.45427407       9.10090093       7.98968739       8.83832234       2.81395201       9.10868358       8.19588627       3.30746029
         4.42045165       3.98812286       3.68031365       6.72227149       3.43335269       1.94120738       4.22939606       2.19374589       4.23232780       7.47791414
         9.82965068       7.39218553       6.29579224       1.96455833       7.86206707       3.84909827       1.57585055       1.81505463       9.14590047       1.56745149
         3.29939158       4.92592054       4.99457630       2.83597430       4.76698265       2.77316629       4.55680185       4.68591168       2.28825943       6.07647481
         3.75640086       5.67267911       9.71899465       5.95612630       5.12338576       3.97787557       2.61354923       5.51364069       6.05925327       7.06734683
         6.37422629       3.47409494       4.92465660       2.86362824       1.07038177       1.01639460       9.81280363       2.34813520       5.91602900       8.96978959
         4.00165842       8.01192587       3.31418813       9.93164500       5.00579829       2.79770083       6.20824777       3.26538364       5.95577074       9.22187681
         4.42219327       3.08717649       1.66307839       1.44914428       4.38188879       4.33742197       9.10427874       6.81023283       9.42085585       5.89265052
END griddata

