# File generated by Flopy version 3.10.0.dev5 on 01/30/2026 at 12:54:31.
BEGIN options
END options

BEGIN packagedata
  GWFHEAD  FILEIN  ../mf6gwf/gwf-hecht-mendez.hds
  GWFBUDGET  FILEIN  ../mf6gwf/gwf-hecht-mendez.bud
END packagedata

