# File generated by Flopy version 3.10.0.dev5 on 01/30/2026 at 12:54:24.
BEGIN options
END options

BEGIN dimensions
  MAXBOUND  99
END dimensions

BEGIN period  1
  1 1  3.74939946E-33
  1 51  3.74939946E-33
  1 101  3.74939946E-33
  1 151  3.74939946E-33
  1 201  3.74939946E-33
  1 251  3.74939946E-33
  1 301  3.74939946E-33
  1 351  3.74939946E-33
  1 401  3.74939946E-33
  1 451  3.74939946E-33
  1 501  3.74939946E-33
  1 551  3.74939946E-33
  1 601  3.74939946E-33
  1 651  3.74939946E-33
  1 701  3.74939946E-33
  1 751  3.74939946E-33
  1 801  3.74939946E-33
  1 851  3.74939946E-33
  1 901  3.74939946E-33
  1 951  3.74939946E-33
  1 1001  3.74939946E-33
  1 1051  3.74939946E-33
  1 1101  3.74939946E-33
  1 1151  3.74939946E-33
  1 1201  3.74939946E-33
  1 1251  3.74939946E-33
  1 1301  3.74939946E-33
  1 1351  3.74939946E-33
  1 1401  3.74939946E-33
  1 1451  3.74939946E-33
  1 1501  3.74939946E-33
  1 1551  3.74939946E-33
  1 1601  3.74939946E-33
  1 1651  3.74939946E-33
  1 1701  3.74939946E-33
  1 1751  3.74939946E-33
  1 1801  3.74939946E-33
  1 1851  3.74939946E-33
  1 1901  3.74939946E-33
  1 1951  3.74939946E-33
  1 2001  3.74939946E-33
  1 2051  3.74939946E-33
  1 2101  2.49218086E-04
  1 2151       0.05555112
  1 2201       0.19715007
  1 2251       0.39755230
  1 2301       0.61784643
  1 2351       0.81525874
  1 2401       0.95145840
  1 2451       1.00000000
  1 2452       0.95145840
  1 2453       0.81525874
  1 2454       0.61784643
  1 2455       0.39755230
  1 2456       0.19715007
  1 2457       0.05555112
  1 2458  2.49218086E-04
  1 2459  3.74939946E-33
  1 2460  3.74939946E-33
  1 2461  3.74939946E-33
  1 2462  3.74939946E-33
  1 2463  3.74939946E-33
  1 2464  3.74939946E-33
  1 2465  3.74939946E-33
  1 2466  3.74939946E-33
  1 2467  3.74939946E-33
  1 2468  3.74939946E-33
  1 2469  3.74939946E-33
  1 2470  3.74939946E-33
  1 2471  3.74939946E-33
  1 2472  3.74939946E-33
  1 2473  3.74939946E-33
  1 2474  3.74939946E-33
  1 2475  3.74939946E-33
  1 2476  3.74939946E-33
  1 2477  3.74939946E-33
  1 2478  3.74939946E-33
  1 2479  3.74939946E-33
  1 2480  3.74939946E-33
  1 2481  3.74939946E-33
  1 2482  3.74939946E-33
  1 2483  3.74939946E-33
  1 2484  3.74939946E-33
  1 2485  3.74939946E-33
  1 2486  3.74939946E-33
  1 2487  3.74939946E-33
  1 2488  3.74939946E-33
  1 2489  3.74939946E-33
  1 2490  3.74939946E-33
  1 2491  3.74939946E-33
  1 2492  3.74939946E-33
  1 2493  3.74939946E-33
  1 2494  3.74939946E-33
  1 2495  3.74939946E-33
  1 2496  3.74939946E-33
  1 2497  3.74939946E-33
  1 2498  3.74939946E-33
  1 2499  3.74939946E-33
  1 2500  3.74939946E-33
END period  1

