# File generated by Flopy version 3.10.0 on 05/09/2026 at 09:47:46.
BEGIN options
  SAVE_FLOWS
END options

BEGIN packages
  DIS6  sim_model_0636.dis  dis
  STO6  sim_model_0636.sto  sto
  NPF6  sim_model_0636.npf  npf
  IC6  sim_model_0636.ic  ic
  CHD6  sim_model_0636.chd  chd_0
  OC6  sim_model_0636.oc  oc
END packages

