# File generated by Flopy version 3.8.0 on 05/07/2026 at 20:44:07.
BEGIN options
  SAVE_FLOWS
END options

BEGIN griddata
  icelltype
    CONSTANT  0
  k
    INTERNAL  FACTOR  1.0
         6.50953158       2.52162779       4.92453117       7.92336225       3.65792774       2.34246661       1.20230492       4.78202043       3.14813927       4.03890573
         9.91641218       3.13953809       1.73073394       7.02640214       6.59118627       3.46828177       5.19599269       2.06530976       1.66561808       9.10696761
         8.14566304       8.56512684       8.33686712       9.91859366       6.19546447       8.32390225       4.79186090       1.24703164       5.08722979       1.94793477
         8.35498055       7.27954961       6.08756861       3.46804566       9.98626369       2.24237848       6.53874119       5.36532671       4.64524332       7.55064187
         3.90532533       4.60490995       3.87069763       9.52499646       9.26837526       8.32459940       1.30669382       9.49035582       9.55395248       8.25931946
         5.33150238       9.70083303       4.75281176       3.86956113       1.14798536       1.34363733       1.47780685       2.15164733       1.30044844       3.03778983
         5.89518015       2.60763229       2.61410305       2.34651894       7.14711813       5.22107696       7.91423138       7.01932653       4.97141360       6.35702905
         5.15490957       9.66940186       2.33030241       9.16131814       5.48132352       6.33248620       7.16192189       2.59705598       8.78216938       5.33879899
         1.62407615       4.28258202       4.25353774       5.24857150       2.61536363       2.57751856       9.54216642       6.90114083       2.21495978       9.35007244
         8.57612456       1.47498432       2.83315166       8.85251475       7.06463258       3.67545259       7.60971771       6.56506244       2.89449321       8.21858119
END griddata

