# File generated by Flopy version 3.10.0.dev5 on 01/30/2026 at 12:54:04.
BEGIN options
  LENGTH_UNITS  meters
  XORIGIN     200.00000000
  YORIGIN     200.00000000
END options

BEGIN dimensions
  NLAY  1
  NROW  9
  NCOL  9
END dimensions

BEGIN griddata
  delr
    CONSTANT      33.33333333
  delc
    CONSTANT      33.33333333
  top
    CONSTANT       0.00000000
  botm
    CONSTANT    -100.00000000
END griddata

