# File generated by Flopy version 3.10.0.dev5 on 01/30/2026 at 12:54:04.
BEGIN options
END options

BEGIN dimensions
  MAXBOUND  7
END dimensions

BEGIN period  1
  1 1 1 1.00000000E+00
  1 2 1 1.00000000E+00
  1 3 1 1.00000000E+00
  1 4 1 1.00000000E+00
  1 5 1 1.00000000E+00
  1 6 1 1.00000000E+00
  1 7 1 1.00000000E+00
END period  1

