# File generated by Flopy version 3.10.0.dev5 on 01/30/2026 at 12:54:49.
BEGIN options
END options

BEGIN griddata
  alh
    CONSTANT      20.00000000
  ath1
    CONSTANT       4.00000000
END griddata

