# File generated by Flopy version 3.10.0.dev5 on 01/30/2026 at 12:55:23.
BEGIN options
  PRINT_OPTION  all
END options

BEGIN linear
  INNER_MAXIMUM  100
END linear

