# File generated by Flopy version 3.10.0.dev5 on 01/30/2026 at 12:55:23.
BEGIN options
END options

BEGIN timing
  TDIS6  ex-gwf-toth.tdis
END timing

BEGIN models
  gwf6  toth.nam  toth
END models

BEGIN exchanges
END exchanges

BEGIN solutiongroup  1
  ims6  ex-gwf-toth.ims  toth
END solutiongroup  1

