# File generated by Flopy version 3.10.0.dev5 on 01/30/2026 at 12:55:23.
BEGIN options
  SAVE_FLOWS
END options

BEGIN packages
  DIS6  toth.dis  dis
  IC6  toth.ic  ic
  NPF6  toth.npf  npf
  CHD6  toth.chd  chd_0
  OC6  toth.oc  oc
END packages

