# File generated by Flopy version 3.10.0.dev5 on 01/30/2026 at 12:53:35.
BEGIN options
  SAVE_FLOWS
END options

BEGIN packages
  DIS6  gwf-barends.dis  dis
  NPF6  gwf-barends.npf  npf-1
  IC6  gwf-barends.ic  ic-1
  STO6  gwf-barends.sto  sto
  WEL6  gwf-barends.wel-left  wel-left
  WEL6  gwf-barends.wel-right  wel-right
  OC6  gwf-barends.oc  oc
END packages

