# File generated by Flopy version 3.10.0.dev5 on 01/30/2026 at 12:53:35.
BEGIN options
  BUDGET  FILEOUT  ex-gwe-barends.cbc
  HEAD  FILEOUT  ex-gwe-barends.hds
END options

BEGIN period  1
  SAVE  HEAD  LAST
  SAVE  BUDGET  LAST
END period  1

