# File generated by Flopy version 3.10.0.dev5 on 01/30/2026 at 12:54:03.
BEGIN options
END options

BEGIN dimensions
  MAXBOUND  3
END dimensions

BEGIN period  1
  1 46 80 2.40000000E+01
  1 47 80 2.40000000E+01
  1 48 80 2.40000000E+01
END period  1

