# File generated by Flopy version 3.8.0 on 05/07/2026 at 20:43:57.
BEGIN options
  SAVE_FLOWS
END options

BEGIN griddata
  icelltype
    CONSTANT  0
  k
    INTERNAL  FACTOR  1.0
         8.61996166       6.05048986       5.09387862       4.16957422       6.27266246       5.82174770       8.44710649       3.38087979       5.30541155       4.13006521
         2.21030490       3.33979615       1.42871209       4.54863974       4.34454573       6.01059631       9.07745099       2.50611298       4.66485778       6.87118005
         6.10974172       6.09866970       5.71919590       6.46822022       2.15405087       2.70393066       4.97068858       8.75830691       9.07286360       3.06036526
         5.19652771       5.23505212       4.83160684       9.73003709       8.43306463       7.34424045       3.73848193       2.34190839       9.47209699       7.99461940
         3.21145648       7.39971687       3.40916414       8.80026028       3.09515878       2.98761942       1.25519377       5.46296640       7.53204227       4.13996606
         3.28078662       8.37144789       8.44113987       1.45057278       8.68567404       7.27905669       1.54377719       4.54863835       5.81019061       2.44238154
         9.46992712       1.27811873       7.58399609       2.16607071       4.24599479       1.38465466       6.70220049       7.54828407       7.22147380       8.51890623
         9.46702665       8.44739122       7.37170209       5.91993550       6.70771532       9.06139434       8.84803667       6.72946441       1.54906955       7.16350527
         5.29895866       7.39840220       2.90264581       7.31211105       9.07989845       7.11504217       2.73750950       5.86623548       8.87316256       6.19643938
         3.96282519       6.01821144       2.59191061       7.03746914       8.81436447       5.32292609       4.23829058       9.54034598       7.48025916       3.71024527
END griddata

