# File generated by Flopy version 3.10.0.dev5 on 01/30/2026 at 12:55:20.
BEGIN options
END options

BEGIN timing
  TDIS6  ex-gwf-sfr-psb.tdis
END timing

BEGIN models
  gwf6  ex-gwf-sfr-psb.nam  ex-gwf-sfr-psb
END models

BEGIN exchanges
END exchanges

BEGIN solutiongroup  1
  ims6  ex-gwf-sfr-psb.ims  ex-gwf-sfr-psb
END solutiongroup  1

