# File generated by Flopy version 3.10.0.dev5 on 01/30/2026 at 12:53:45.
BEGIN options
  TS6  FILEIN  ex-gwf-fhb.chd.ts
END options

BEGIN dimensions
  MAXBOUND  3
END dimensions

BEGIN period  1
  1 1 10 CHDHEAD
  1 2 10 CHDHEAD
  1 3 10 CHDHEAD
END period  1

