# File generated by Flopy version 3.10.0.dev5 on 01/30/2026 at 12:54:45.
BEGIN options
  XT3D_OFF
END options

BEGIN griddata
  alh
    CONSTANT     100.00000000
  ath1
    CONSTANT     100.00000000
END griddata

