# File generated by Flopy version 3.10.0.dev5 on 01/30/2026 at 12:54:35.
BEGIN options
  auxiliary  CONCENTRATION
END options

BEGIN dimensions
  MAXBOUND  1
END dimensions

BEGIN period  1
  1 1 1 1.00000000E-03 1.00000000E+00
END period  1

