# File generated by Flopy version 3.10.0 on 05/09/2026 at 09:47:41.
BEGIN options
  SAVE_FLOWS
END options

BEGIN packages
  DIS6  sim_model_0575.dis  dis
  STO6  sim_model_0575.sto  sto
  NPF6  sim_model_0575.npf  npf
  IC6  sim_model_0575.ic  ic
  CHD6  sim_model_0575.chd  chd_0
  OC6  sim_model_0575.oc  oc
END packages

