# File generated by Flopy version 3.10.0.dev5 on 01/30/2026 at 12:53:37.
BEGIN options
END options

BEGIN timing
  TDIS6  ex-gwf-csub-p03a.tdis
END timing

BEGIN models
  gwf6  ex-gwf-csub-p03a.nam  ex-gwf-csub-p03a
END models

BEGIN exchanges
END exchanges

BEGIN solutiongroup  1
  ims6  ex-gwf-csub-p03a.ims  ex-gwf-csub-p03a
END solutiongroup  1

