# File generated by Flopy version 3.8.0 on 05/07/2026 at 20:44:10.
BEGIN options
  SAVE_FLOWS
END options

BEGIN griddata
  icelltype
    CONSTANT  0
  k
    INTERNAL  FACTOR  1.0
         5.71449988       1.35966677       2.67368781       7.95511583       5.96933991       1.77649209       4.97255281       7.43994236       7.03497838       5.25561084
         9.15544814       1.94426612       2.57258399       1.80027993       6.84690526       1.64248717       5.13993623       9.16021125       1.84765461       6.69595264
         3.39568614       9.24794926       2.14772698       1.61743016       7.05162017       2.82173357       5.33691742       3.13606875       8.13461490       4.10813785
         9.58588674       6.40264306       4.52873679       6.74681201       8.93309210       2.82106728       6.37910331       4.82174258       2.80864330       2.45922501
         5.38395796       1.31662809       4.69440026       8.73254929       4.56891256       3.17900646       9.42907846       7.79239217       9.95105241       2.03491920
         2.43514030       7.30473554       5.71552900       2.57100714       4.93358554       7.27941245       5.62351104       7.39997632       3.63026177       4.16899811
         3.78276227       7.51217486       2.48159903       3.06030066       2.30219866       2.76240664       5.54539630       3.45043145       3.18757300       4.10701029
         9.90537779       7.29148403       5.52216662       7.12168696       9.25688590       8.34539282       9.61570141       8.32079379       3.69198354       3.89942249
         7.09039223       1.39988842       7.42115514       5.24474084       6.75888820       5.55584414       2.49121977       4.73012493       8.91709507       8.74974179
         4.72962313       7.01257554       7.81067691       8.25933594       7.06623048       3.75855076       2.71030207       3.05831271       2.67322250       3.43398224
END griddata

