# File generated by Flopy version 3.10.0.dev5 on 01/30/2026 at 12:54:00.
BEGIN options
  SAVE_SPECIFIC_DISCHARGE
END options

BEGIN griddata
  icelltype  LAYERED
    CONSTANT  1
    CONSTANT  0
    CONSTANT  0
    CONSTANT  0
    CONSTANT  0
    CONSTANT  0
    CONSTANT  0
    CONSTANT  0
    CONSTANT  0
    CONSTANT  0
    CONSTANT  0
    CONSTANT  0
    CONSTANT  0
    CONSTANT  0
    CONSTANT  0
    CONSTANT  0
    CONSTANT  0
    CONSTANT  0
    CONSTANT  0
    CONSTANT  0
    CONSTANT  0
    CONSTANT  0
    CONSTANT  0
    CONSTANT  0
    CONSTANT  0
    CONSTANT  0
    CONSTANT  0
    CONSTANT  0
    CONSTANT  0
    CONSTANT  0
    CONSTANT  0
    CONSTANT  0
    CONSTANT  0
    CONSTANT  0
    CONSTANT  0
    CONSTANT  0
    CONSTANT  0
    CONSTANT  0
    CONSTANT  0
    CONSTANT  0
    CONSTANT  0
  k  LAYERED
    INTERNAL  FACTOR  1.0
         250.00000000     250.00000000     250.00000000     250.00000000     250.00000000     250.00000000     250.00000000     250.00000000     250.00000000     250.00000000     250.00000000     250.00000000     250.00000000     250.00000000     250.00000000     250.00000000     250.00000000     250.00000000     250.00000000     250.00000000     250.00000000     250.00000000     250.00000000     250.00000000     250.00000000     250.00000000     250.00000000
         250.00000000     250.00000000     250.00000000     250.00000000     250.00000000     250.00000000     250.00000000     250.00000000     250.00000000     250.00000000     250.00000000     250.00000000     250.00000000     250.00000000     250.00000000     250.00000000     250.00000000     250.00000000     250.00000000     250.00000000     250.00000000     250.00000000     250.00000000     250.00000000     250.00000000     250.00000000     250.00000000
         250.00000000     250.00000000     250.00000000     250.00000000     250.00000000     250.00000000     250.00000000     250.00000000     250.00000000     250.00000000     250.00000000     250.00000000     250.00000000     250.00000000     250.00000000     250.00000000     250.00000000     250.00000000     250.00000000     250.00000000     250.00000000     250.00000000     250.00000000     250.00000000     250.00000000     250.00000000     250.00000000
         250.00000000     250.00000000     250.00000000     250.00000000     250.00000000     250.00000000     250.00000000     250.00000000     250.00000000     250.00000000     250.00000000     250.00000000     250.00000000     250.00000000     250.00000000     250.00000000     250.00000000     250.00000000     250.00000000     250.00000000     250.00000000     250.00000000     250.00000000     250.00000000     250.00000000     250.00000000     250.00000000
         250.00000000     250.00000000     250.00000000     250.00000000     250.00000000     250.00000000     250.00000000     250.00000000     250.00000000     250.00000000     250.00000000     250.00000000     250.00000000     250.00000000     250.00000000     250.00000000     250.00000000     250.00000000     250.00000000     250.00000000     250.00000000     250.00000000     250.00000000     250.00000000     250.00000000     250.00000000     250.00000000
         250.00000000     250.00000000     250.00000000     250.00000000     250.00000000     250.00000000     250.00000000     250.00000000     250.00000000     250.00000000     250.00000000     250.00000000     250.00000000     250.00000000     250.00000000     250.00000000     250.00000000     250.00000000     250.00000000     250.00000000     250.00000000     250.00000000     250.00000000     250.00000000     250.00000000     250.00000000     250.00000000
         250.00000000     250.00000000     250.00000000     250.00000000     250.00000000     250.00000000     250.00000000     250.00000000     250.00000000     250.00000000     250.00000000     250.00000000     250.00000000     250.00000000     250.00000000     250.00000000     250.00000000     250.00000000     250.00000000     250.00000000     250.00000000     250.00000000     250.00000000     250.00000000     250.00000000     250.00000000     250.00000000
         250.00000000     250.00000000     250.00000000     250.00000000     250.00000000     250.00000000     250.00000000     250.00000000     250.00000000     250.00000000     250.00000000     250.00000000     250.00000000     250.00000000     250.00000000     250.00000000     250.00000000     250.00000000     250.00000000     250.00000000     250.00000000     250.00000000     250.00000000     250.00000000     250.00000000     250.00000000     250.00000000
         250.00000000     250.00000000     250.00000000     250.00000000     250.00000000     250.00000000     250.00000000     250.00000000     250.00000000     250.00000000     250.00000000     250.00000000     250.00000000     250.00000000     250.00000000     250.00000000     250.00000000     250.00000000     250.00000000     250.00000000     250.00000000     250.00000000     250.00000000     250.00000000     250.00000000     250.00000000     250.00000000
         250.00000000     250.00000000     250.00000000     250.00000000     250.00000000     250.00000000     250.00000000     250.00000000     250.00000000     250.00000000     250.00000000     250.00000000     250.00000000     250.00000000     250.00000000     250.00000000     250.00000000     250.00000000     250.00000000     250.00000000     250.00000000     250.00000000     250.00000000     250.00000000     250.00000000     250.00000000     250.00000000
         250.00000000     250.00000000     250.00000000     250.00000000     250.00000000     250.00000000     250.00000000     250.00000000     250.00000000     250.00000000     250.00000000     250.00000000     250.00000000     250.00000000     250.00000000     250.00000000     250.00000000     250.00000000     250.00000000     250.00000000     250.00000000     250.00000000     250.00000000     250.00000000     250.00000000     250.00000000     250.00000000
         250.00000000     250.00000000     250.00000000     250.00000000     250.00000000     250.00000000     250.00000000     250.00000000     250.00000000     250.00000000     250.00000000     250.00000000     250.00000000     250.00000000     250.00000000     250.00000000     250.00000000     250.00000000     250.00000000     250.00000000     250.00000000     250.00000000     250.00000000     250.00000000     250.00000000     250.00000000     250.00000000
         250.00000000     250.00000000     250.00000000     250.00000000     250.00000000     250.00000000     250.00000000     250.00000000     250.00000000     250.00000000     250.00000000     250.00000000     250.00000000     250.00000000     250.00000000     250.00000000     250.00000000     250.00000000     250.00000000     250.00000000     250.00000000     250.00000000     250.00000000     250.00000000     250.00000000     250.00000000     250.00000000
         250.00000000     250.00000000     250.00000000     250.00000000     250.00000000     250.00000000     250.00000000     250.00000000     250.00000000     250.00000000     250.00000000     250.00000000     250.00000000     250.00000000     250.00000000     250.00000000     250.00000000     250.00000000     250.00000000     250.00000000     250.00000000     250.00000000     250.00000000     250.00000000     250.00000000     250.00000000     250.00000000
         250.00000000     250.00000000     250.00000000     250.00000000     250.00000000     250.00000000     250.00000000     250.00000000     250.00000000     250.00000000     250.00000000     250.00000000     250.00000000     250.00000000     250.00000000     250.00000000     250.00000000     250.00000000     250.00000000     250.00000000     250.00000000     250.00000000     250.00000000     250.00000000     250.00000000     250.00000000     250.00000000
         250.00000000     250.00000000     250.00000000     250.00000000     250.00000000     250.00000000     250.00000000     250.00000000     250.00000000     250.00000000     250.00000000     250.00000000     250.00000000     250.00000000     250.00000000     250.00000000     250.00000000     250.00000000     250.00000000     250.00000000     250.00000000     250.00000000     250.00000000     250.00000000     250.00000000     250.00000000     250.00000000
    INTERNAL  FACTOR  1.0
         250.00000000     250.00000000     250.00000000     250.00000000     250.00000000     250.00000000     250.00000000     250.00000000     250.00000000     250.00000000     250.00000000     250.00000000     250.00000000     250.00000000     250.00000000     250.00000000     250.00000000     250.00000000     250.00000000     250.00000000     250.00000000     250.00000000     250.00000000     250.00000000     250.00000000     250.00000000     250.00000000
         250.00000000     250.00000000     250.00000000     250.00000000     250.00000000     250.00000000     250.00000000     250.00000000     250.00000000     250.00000000     250.00000000     250.00000000     250.00000000     250.00000000     250.00000000     250.00000000     250.00000000     250.00000000     250.00000000     250.00000000     250.00000000     250.00000000     250.00000000     250.00000000     250.00000000     250.00000000     250.00000000
         250.00000000     250.00000000     250.00000000     250.00000000     250.00000000     250.00000000     250.00000000     250.00000000     250.00000000     250.00000000     250.00000000     250.00000000     250.00000000     250.00000000     250.00000000     250.00000000     250.00000000     250.00000000     250.00000000     250.00000000     250.00000000     250.00000000     250.00000000     250.00000000     250.00000000     250.00000000     250.00000000
         250.00000000     250.00000000     250.00000000     250.00000000     250.00000000     250.00000000     250.00000000     250.00000000     250.00000000     250.00000000     250.00000000     250.00000000     250.00000000     250.00000000     250.00000000     250.00000000     250.00000000     250.00000000     250.00000000     250.00000000     250.00000000     250.00000000     250.00000000     250.00000000     250.00000000     250.00000000     250.00000000
         250.00000000     250.00000000     250.00000000     250.00000000     250.00000000     250.00000000     250.00000000     250.00000000     250.00000000     250.00000000     250.00000000     250.00000000     250.00000000     250.00000000     250.00000000     250.00000000     250.00000000     250.00000000     250.00000000     250.00000000     250.00000000     250.00000000     250.00000000     250.00000000     250.00000000     250.00000000     250.00000000
         250.00000000     250.00000000     250.00000000     250.00000000     250.00000000     250.00000000     250.00000000     250.00000000     250.00000000     250.00000000     250.00000000     250.00000000     250.00000000     250.00000000     250.00000000     250.00000000     250.00000000     250.00000000     250.00000000     250.00000000     250.00000000     250.00000000     250.00000000     250.00000000     250.00000000     250.00000000     250.00000000
         250.00000000     250.00000000     250.00000000     250.00000000     250.00000000     250.00000000     250.00000000     250.00000000     250.00000000     250.00000000     250.00000000     250.00000000     250.00000000     250.00000000     250.00000000     250.00000000     250.00000000     250.00000000     250.00000000     250.00000000     250.00000000     250.00000000     250.00000000     250.00000000     250.00000000     250.00000000     250.00000000
         250.00000000     250.00000000     250.00000000     250.00000000     250.00000000     250.00000000     250.00000000     250.00000000     250.00000000     250.00000000     250.00000000     250.00000000     250.00000000     250.00000000     250.00000000     250.00000000     250.00000000     250.00000000     250.00000000     250.00000000     250.00000000     250.00000000     250.00000000     250.00000000     250.00000000     250.00000000     250.00000000
         250.00000000     250.00000000     250.00000000     250.00000000     250.00000000     250.00000000     250.00000000     250.00000000     250.00000000     250.00000000     250.00000000     250.00000000     250.00000000     250.00000000     250.00000000     250.00000000     250.00000000     250.00000000     250.00000000     250.00000000     250.00000000     250.00000000     250.00000000     250.00000000     250.00000000     250.00000000     250.00000000
         250.00000000     250.00000000     250.00000000     250.00000000     250.00000000     250.00000000     250.00000000     250.00000000     250.00000000     250.00000000     250.00000000     250.00000000     250.00000000     250.00000000     250.00000000     250.00000000     250.00000000     250.00000000     250.00000000     250.00000000     250.00000000     250.00000000     250.00000000     250.00000000     250.00000000     250.00000000     250.00000000
         250.00000000     250.00000000     250.00000000     250.00000000     250.00000000     250.00000000     250.00000000     250.00000000     250.00000000     250.00000000     250.00000000     250.00000000     250.00000000     250.00000000     250.00000000     250.00000000     250.00000000     250.00000000     250.00000000     250.00000000     250.00000000     250.00000000     250.00000000     250.00000000     250.00000000     250.00000000     250.00000000
         250.00000000     250.00000000     250.00000000     250.00000000     250.00000000     250.00000000     250.00000000     250.00000000     250.00000000     250.00000000     250.00000000     250.00000000     250.00000000     250.00000000     250.00000000     250.00000000     250.00000000     250.00000000     250.00000000     250.00000000     250.00000000     250.00000000     250.00000000     250.00000000     250.00000000     250.00000000     250.00000000
         250.00000000     250.00000000     250.00000000     250.00000000     250.00000000     250.00000000     250.00000000     250.00000000     250.00000000     250.00000000     250.00000000     250.00000000     250.00000000     250.00000000     250.00000000     250.00000000     250.00000000     250.00000000     250.00000000     250.00000000     250.00000000     250.00000000     250.00000000     250.00000000     250.00000000     250.00000000     250.00000000
         250.00000000     250.00000000     250.00000000     250.00000000     250.00000000     250.00000000     250.00000000     250.00000000     250.00000000     250.00000000     250.00000000     250.00000000     250.00000000     250.00000000     250.00000000     250.00000000     250.00000000     250.00000000     250.00000000     250.00000000     250.00000000     250.00000000     250.00000000     250.00000000     250.00000000     250.00000000     250.00000000
         250.00000000     250.00000000     250.00000000     250.00000000     250.00000000     250.00000000     250.00000000     250.00000000     250.00000000     250.00000000     250.00000000     250.00000000     250.00000000     250.00000000     250.00000000     250.00000000     250.00000000     250.00000000     250.00000000     250.00000000     250.00000000     250.00000000     250.00000000     250.00000000     250.00000000     250.00000000     250.00000000
         250.00000000     250.00000000     250.00000000     250.00000000     250.00000000     250.00000000     250.00000000     250.00000000     250.00000000     250.00000000     250.00000000     250.00000000     250.00000000  1.00000000E+09     250.00000000     250.00000000     250.00000000     250.00000000     250.00000000     250.00000000     250.00000000     250.00000000     250.00000000     250.00000000     250.00000000     250.00000000     250.00000000
    INTERNAL  FACTOR  1.0
         250.00000000     250.00000000     250.00000000     250.00000000     250.00000000     250.00000000     250.00000000     250.00000000     250.00000000     250.00000000     250.00000000     250.00000000     250.00000000     250.00000000     250.00000000     250.00000000     250.00000000     250.00000000     250.00000000     250.00000000     250.00000000     250.00000000     250.00000000     250.00000000     250.00000000     250.00000000     250.00000000
         250.00000000     250.00000000     250.00000000     250.00000000     250.00000000     250.00000000     250.00000000     250.00000000     250.00000000     250.00000000     250.00000000     250.00000000     250.00000000     250.00000000     250.00000000     250.00000000     250.00000000     250.00000000     250.00000000     250.00000000     250.00000000     250.00000000     250.00000000     250.00000000     250.00000000     250.00000000     250.00000000
         250.00000000     250.00000000     250.00000000     250.00000000     250.00000000     250.00000000     250.00000000     250.00000000     250.00000000     250.00000000     250.00000000     250.00000000     250.00000000     250.00000000     250.00000000     250.00000000     250.00000000     250.00000000     250.00000000     250.00000000     250.00000000     250.00000000     250.00000000     250.00000000     250.00000000     250.00000000     250.00000000
         250.00000000     250.00000000     250.00000000     250.00000000     250.00000000     250.00000000     250.00000000     250.00000000     250.00000000     250.00000000     250.00000000     250.00000000     250.00000000     250.00000000     250.00000000     250.00000000     250.00000000     250.00000000     250.00000000     250.00000000     250.00000000     250.00000000     250.00000000     250.00000000     250.00000000     250.00000000     250.00000000
         250.00000000     250.00000000     250.00000000     250.00000000     250.00000000     250.00000000     250.00000000     250.00000000     250.00000000     250.00000000     250.00000000     250.00000000     250.00000000     250.00000000     250.00000000     250.00000000     250.00000000     250.00000000     250.00000000     250.00000000     250.00000000     250.00000000     250.00000000     250.00000000     250.00000000     250.00000000     250.00000000
         250.00000000     250.00000000     250.00000000     250.00000000     250.00000000     250.00000000     250.00000000     250.00000000     250.00000000     250.00000000     250.00000000     250.00000000     250.00000000     250.00000000     250.00000000     250.00000000     250.00000000     250.00000000     250.00000000     250.00000000     250.00000000     250.00000000     250.00000000     250.00000000     250.00000000     250.00000000     250.00000000
         250.00000000     250.00000000     250.00000000     250.00000000     250.00000000     250.00000000     250.00000000     250.00000000     250.00000000     250.00000000     250.00000000     250.00000000     250.00000000     250.00000000     250.00000000     250.00000000     250.00000000     250.00000000     250.00000000     250.00000000     250.00000000     250.00000000     250.00000000     250.00000000     250.00000000     250.00000000     250.00000000
         250.00000000     250.00000000     250.00000000     250.00000000     250.00000000     250.00000000     250.00000000     250.00000000     250.00000000     250.00000000     250.00000000     250.00000000     250.00000000     250.00000000     250.00000000     250.00000000     250.00000000     250.00000000     250.00000000     250.00000000     250.00000000     250.00000000     250.00000000     250.00000000     250.00000000     250.00000000     250.00000000
         250.00000000     250.00000000     250.00000000     250.00000000     250.00000000     250.00000000     250.00000000     250.00000000     250.00000000     250.00000000     250.00000000     250.00000000     250.00000000     250.00000000     250.00000000     250.00000000     250.00000000     250.00000000     250.00000000     250.00000000     250.00000000     250.00000000     250.00000000     250.00000000     250.00000000     250.00000000     250.00000000
         250.00000000     250.00000000     250.00000000     250.00000000     250.00000000     250.00000000     250.00000000     250.00000000     250.00000000     250.00000000     250.00000000     250.00000000     250.00000000     250.00000000     250.00000000     250.00000000     250.00000000     250.00000000     250.00000000     250.00000000     250.00000000     250.00000000     250.00000000     250.00000000     250.00000000     250.00000000     250.00000000
         250.00000000     250.00000000     250.00000000     250.00000000     250.00000000     250.00000000     250.00000000     250.00000000     250.00000000     250.00000000     250.00000000     250.00000000     250.00000000     250.00000000     250.00000000     250.00000000     250.00000000     250.00000000     250.00000000     250.00000000     250.00000000     250.00000000     250.00000000     250.00000000     250.00000000     250.00000000     250.00000000
         250.00000000     250.00000000     250.00000000     250.00000000     250.00000000     250.00000000     250.00000000     250.00000000     250.00000000     250.00000000     250.00000000     250.00000000     250.00000000     250.00000000     250.00000000     250.00000000     250.00000000     250.00000000     250.00000000     250.00000000     250.00000000     250.00000000     250.00000000     250.00000000     250.00000000     250.00000000     250.00000000
         250.00000000     250.00000000     250.00000000     250.00000000     250.00000000     250.00000000     250.00000000     250.00000000     250.00000000     250.00000000     250.00000000     250.00000000     250.00000000     250.00000000     250.00000000     250.00000000     250.00000000     250.00000000     250.00000000     250.00000000     250.00000000     250.00000000     250.00000000     250.00000000     250.00000000     250.00000000     250.00000000
         250.00000000     250.00000000     250.00000000     250.00000000     250.00000000     250.00000000     250.00000000     250.00000000     250.00000000     250.00000000     250.00000000     250.00000000     250.00000000     250.00000000     250.00000000     250.00000000     250.00000000     250.00000000     250.00000000     250.00000000     250.00000000     250.00000000     250.00000000     250.00000000     250.00000000     250.00000000     250.00000000
         250.00000000     250.00000000     250.00000000     250.00000000     250.00000000     250.00000000     250.00000000     250.00000000     250.00000000     250.00000000     250.00000000     250.00000000     250.00000000     250.00000000     250.00000000     250.00000000     250.00000000     250.00000000     250.00000000     250.00000000     250.00000000     250.00000000     250.00000000     250.00000000     250.00000000     250.00000000     250.00000000
         250.00000000     250.00000000     250.00000000     250.00000000     250.00000000     250.00000000     250.00000000     250.00000000     250.00000000     250.00000000     250.00000000     250.00000000     250.00000000  1.00000000E+09     250.00000000     250.00000000     250.00000000     250.00000000     250.00000000     250.00000000     250.00000000     250.00000000     250.00000000     250.00000000     250.00000000     250.00000000     250.00000000
    INTERNAL  FACTOR  1.0
         250.00000000     250.00000000     250.00000000     250.00000000     250.00000000     250.00000000     250.00000000     250.00000000     250.00000000     250.00000000     250.00000000     250.00000000     250.00000000     250.00000000     250.00000000     250.00000000     250.00000000     250.00000000     250.00000000     250.00000000     250.00000000     250.00000000     250.00000000     250.00000000     250.00000000     250.00000000     250.00000000
         250.00000000     250.00000000     250.00000000     250.00000000     250.00000000     250.00000000     250.00000000     250.00000000     250.00000000     250.00000000     250.00000000     250.00000000     250.00000000     250.00000000     250.00000000     250.00000000     250.00000000     250.00000000     250.00000000     250.00000000     250.00000000     250.00000000     250.00000000     250.00000000     250.00000000     250.00000000     250.00000000
         250.00000000     250.00000000     250.00000000     250.00000000     250.00000000     250.00000000     250.00000000     250.00000000     250.00000000     250.00000000     250.00000000     250.00000000     250.00000000     250.00000000     250.00000000     250.00000000     250.00000000     250.00000000     250.00000000     250.00000000     250.00000000     250.00000000     250.00000000     250.00000000     250.00000000     250.00000000     250.00000000
         250.00000000     250.00000000     250.00000000     250.00000000     250.00000000     250.00000000     250.00000000     250.00000000     250.00000000     250.00000000     250.00000000     250.00000000     250.00000000     250.00000000     250.00000000     250.00000000     250.00000000     250.00000000     250.00000000     250.00000000     250.00000000     250.00000000     250.00000000     250.00000000     250.00000000     250.00000000     250.00000000
         250.00000000     250.00000000     250.00000000     250.00000000     250.00000000     250.00000000     250.00000000     250.00000000     250.00000000     250.00000000     250.00000000     250.00000000     250.00000000     250.00000000     250.00000000     250.00000000     250.00000000     250.00000000     250.00000000     250.00000000     250.00000000     250.00000000     250.00000000     250.00000000     250.00000000     250.00000000     250.00000000
         250.00000000     250.00000000     250.00000000     250.00000000     250.00000000     250.00000000     250.00000000     250.00000000     250.00000000     250.00000000     250.00000000     250.00000000     250.00000000     250.00000000     250.00000000     250.00000000     250.00000000     250.00000000     250.00000000     250.00000000     250.00000000     250.00000000     250.00000000     250.00000000     250.00000000     250.00000000     250.00000000
         250.00000000     250.00000000     250.00000000     250.00000000     250.00000000     250.00000000     250.00000000     250.00000000     250.00000000     250.00000000     250.00000000     250.00000000     250.00000000     250.00000000     250.00000000     250.00000000     250.00000000     250.00000000     250.00000000     250.00000000     250.00000000     250.00000000     250.00000000     250.00000000     250.00000000     250.00000000     250.00000000
         250.00000000     250.00000000     250.00000000     250.00000000     250.00000000     250.00000000     250.00000000     250.00000000     250.00000000     250.00000000     250.00000000     250.00000000     250.00000000     250.00000000     250.00000000     250.00000000     250.00000000     250.00000000     250.00000000     250.00000000     250.00000000     250.00000000     250.00000000     250.00000000     250.00000000     250.00000000     250.00000000
         250.00000000     250.00000000     250.00000000     250.00000000     250.00000000     250.00000000     250.00000000     250.00000000     250.00000000     250.00000000     250.00000000     250.00000000     250.00000000     250.00000000     250.00000000     250.00000000     250.00000000     250.00000000     250.00000000     250.00000000     250.00000000     250.00000000     250.00000000     250.00000000     250.00000000     250.00000000     250.00000000
         250.00000000     250.00000000     250.00000000     250.00000000     250.00000000     250.00000000     250.00000000     250.00000000     250.00000000     250.00000000     250.00000000     250.00000000     250.00000000     250.00000000     250.00000000     250.00000000     250.00000000     250.00000000     250.00000000     250.00000000     250.00000000     250.00000000     250.00000000     250.00000000     250.00000000     250.00000000     250.00000000
         250.00000000     250.00000000     250.00000000     250.00000000     250.00000000     250.00000000     250.00000000     250.00000000     250.00000000     250.00000000     250.00000000     250.00000000     250.00000000     250.00000000     250.00000000     250.00000000     250.00000000     250.00000000     250.00000000     250.00000000     250.00000000     250.00000000     250.00000000     250.00000000     250.00000000     250.00000000     250.00000000
         250.00000000     250.00000000     250.00000000     250.00000000     250.00000000     250.00000000     250.00000000     250.00000000     250.00000000     250.00000000     250.00000000     250.00000000     250.00000000     250.00000000     250.00000000     250.00000000     250.00000000     250.00000000     250.00000000     250.00000000     250.00000000     250.00000000     250.00000000     250.00000000     250.00000000     250.00000000     250.00000000
         250.00000000     250.00000000     250.00000000     250.00000000     250.00000000     250.00000000     250.00000000     250.00000000     250.00000000     250.00000000     250.00000000     250.00000000     250.00000000     250.00000000     250.00000000     250.00000000     250.00000000     250.00000000     250.00000000     250.00000000     250.00000000     250.00000000     250.00000000     250.00000000     250.00000000     250.00000000     250.00000000
         250.00000000     250.00000000     250.00000000     250.00000000     250.00000000     250.00000000     250.00000000     250.00000000     250.00000000     250.00000000     250.00000000     250.00000000     250.00000000     250.00000000     250.00000000     250.00000000     250.00000000     250.00000000     250.00000000     250.00000000     250.00000000     250.00000000     250.00000000     250.00000000     250.00000000     250.00000000     250.00000000