# File generated by Flopy version 3.10.0.dev5 on 01/30/2026 at 12:55:09.
BEGIN options
  XT3D_OFF
END options

BEGIN griddata
  diffc
    CONSTANT  1.02882000E-06
  alh
    CONSTANT       0.00000000
  ath1
    CONSTANT       0.00000000
END griddata

