# File generated by Flopy version 3.10.0.dev5 on 01/30/2026 at 12:55:09.
BEGIN options
  SORPTION  linear
END options

BEGIN griddata
  porosity
    CONSTANT       0.35000000
  bulk_density
    CONSTANT    1709.50000000
  distcoef
    CONSTANT  1.91663000E-04
END griddata

