# File generated by Flopy version 3.10.0.dev5 on 01/30/2026 at 12:54:25.
BEGIN options
END options

BEGIN dimensions
  MAXBOUND  64
END dimensions

BEGIN period  1
  1 626       1.00000000
  1 722       1.00000000
  1 984       1.00000000
  1 985       1.00000000
  1 994       1.00000000
  1 1001       1.00000000
  1 1004       1.00000000
  1 1035       1.00000000
  1 1097       1.00000000
  1 1106       1.00000000
  1 1380       0.00000000
  1 1426       1.00000000
  1 1577       1.00000000
  1 1674       1.00000000
  1 1765       0.00000000
  1 1831       0.00000000
  1 1848       0.00000000
  1 1856       0.00000000
  1 1858       0.00000000
  1 1864       0.00000000
  1 1910       1.00000000
  1 1927       0.00000000
  1 1930       0.00000000
  1 1973       0.00000000
  1 2061       0.00000000
  1 2066       0.00000000
  1 2088       0.00000000
  1 2118       0.00000000
  1 2126       0.00000000
  1 2130       0.00000000
  1 2206       0.00000000
  1 2211       1.00000000
  1 2214       0.00000000
  1 2260       0.00000000
  1 2316       0.00000000
  1 2319       0.00000000
  1 2320       0.00000000
  1 2326       0.00000000
  1 2331       0.00000000
  1 2334       0.00000000
  1 2341       0.00000000
  1 2343       0.00000000
  1 2383       1.00000000
  1 2384       1.00000000
  1 2399       0.00000000
  1 2403       1.00000000
  1 2406       1.00000000
  1 2409       0.00000000
  1 2410       0.00000000
  1 2414       1.00000000
  1 2433       0.00000000
  1 2446       1.00000000
  1 2455       1.00000000
  1 2456       1.00000000
  1 2484       1.00000000
  1 2486       1.00000000
  1 2495       1.00000000
  1 2503       1.00000000
  1 2525       1.00000000
  1 2529       1.00000000
  1 2532       1.00000000
  1 2589       1.00000000
  1 2592       1.00000000
  1 2621       0.00000000
END period  1

