# File generated by Flopy version 3.10.0.dev5 on 01/30/2026 at 12:55:18.
BEGIN options
  TIME_UNITS  seconds
END options

BEGIN dimensions
  NPER  3
END dimensions

BEGIN perioddata
       0.00000000  1       1.00000000
  1.57788000E+09  50       1.10000000
  1.57788000E+09  50       1.10000000
END perioddata

