# File generated by Flopy version 3.10.0.dev5 on 01/30/2026 at 12:54:03.
BEGIN options
END options

BEGIN timing
  TDIS6  ex-gwf-advtidal.tdis
END timing

BEGIN models
  gwf6  ex-gwf-advtidal.nam  ex-gwf-advtidal
END models

BEGIN exchanges
END exchanges

BEGIN solutiongroup  1
  ims6  ex-gwf-advtidal.ims  ex-gwf-advtidal
END solutiongroup  1

