# File generated by Flopy version 3.10.0.dev5 on 01/30/2026 at 12:53:45.
BEGIN options
END options

BEGIN packagedata
  GWFHEAD  FILEIN  ../gwf/ex-gwe-prt-gwf.hds
  GWFBUDGET  FILEIN  ../gwf/ex-gwe-prt-gwf.cbc
END packagedata

