# File generated by Flopy version 3.10.0.dev5 on 01/30/2026 at 12:53:44.
BEGIN options
END options

BEGIN packages
  DISV6  ex-gwe-prt-prt.disv  disv
  MIP6  ex-gwe-prt-prt.mip  mip
  PRP6  ex-gwe-prt-prt_1.prp  prp1
  OC6  ex-gwe-prt-prt.oc  oc
  FMI6  ex-gwe-prt-prt.fmi  fmi
END packages

