# File generated by Flopy version 3.10.0.dev5 on 01/30/2026 at 12:53:44.
BEGIN options
END options

BEGIN timing
  TDIS6  ex-gwe-prt.tdis
END timing

BEGIN models
  prt6  ex-gwe-prt-prt.nam  ex-gwe-prt-prt
END models

BEGIN exchanges
END exchanges

BEGIN solutiongroup  1
  ems6  ex-gwe-prt-prt.ems  ex-gwe-prt-prt
END solutiongroup  1

