# File generated by Flopy version 3.8.0 on 05/07/2026 at 20:44:16.
BEGIN options
  SAVE_FLOWS
END options

BEGIN griddata
  icelltype
    CONSTANT  0
  k
    INTERNAL  FACTOR  1.0
         9.08541144       2.48603949       4.13077517       3.46175182       9.69788185       9.70519398       5.50719405       8.42140710       8.49336526       7.13597877
         7.69170770       8.52565699       5.20942313       5.21573049       8.48772969       4.24388164       4.19480124       7.51120021       6.77392761       1.45648851
         5.37288618       5.83573642       5.38587035       3.40837288       2.99640086       7.18569125       6.34955307       6.00375759       6.94523439       3.91082363
         9.74966818       8.27457035       4.37182262       7.47953438       8.63677934       1.40763092       7.13289193       8.12338894       1.22643465       1.03131800
         6.49258084       7.75403815       3.93476427       3.44194020       3.13806346       7.46981943       2.87052507       3.95412016       6.29885272       9.10235175
         2.29328447       5.92924321       1.39418993       6.87915268       9.12667798       6.83382064       5.02994261       3.87691588       6.62046191       7.96540069
         6.11235155       9.52968311       3.28655792       6.97207917       7.66432599       9.57075009       4.57417673       9.78077714       4.01302284       8.89458260
         9.82793236       8.74204641       4.93844656       4.15426508       5.01857580       3.94910993       1.25801203       8.09956894       1.58627549       4.25415582
         2.80631515       7.42005565       4.91359202       5.17972243       3.81758972       3.67971035       6.79537081       9.01392255       6.18186115       7.15215765
         3.84894883       8.06612414       7.98737014       7.49138779       8.75962018       5.71368533       8.64049095       5.03797430       5.94098026       7.42629082
END griddata

