# File generated by Flopy version 3.8.0 on 05/07/2026 at 20:46:32.
BEGIN options
  SAVE_FLOWS
END options

BEGIN griddata
  icelltype
    CONSTANT  0
  k
    INTERNAL  FACTOR  1.0
         4.26074332       9.86777917       9.00828725       1.36798329       3.81491487       4.86397248       1.61784467       6.34901357       3.42964395       6.41661687
         7.06155627       9.57166819       4.39996409       3.55316346       3.03461041       6.88214476       6.10519501       2.55853384       2.65854648       4.76501750
         2.53811462       5.20805672       3.65630555       5.36361658       5.48917366       7.53075577       9.97955093       9.91885083       4.63285972       8.75642702
         3.55030893       5.89493889       6.42631986       5.70443443       9.91843509       5.53807039       4.09144801       4.21222480       4.95913650       9.19239931
         2.66090155       8.76527246       5.28222163       8.24979099       1.34545368       6.52663980       1.11255896       7.43769609       2.38281242       7.26416295
         8.78335929       5.14505645       5.00494422       7.35890668       5.85501288       9.43298083       4.90234975       7.31244328       2.33391708       3.57447218
         3.05064147       2.31895837       1.05270012       8.49781735       7.11267420       2.18306699       2.02218821       6.49713740       1.37726144       8.35476450
         9.89352803       3.55785883       7.18831595       7.14741139       1.04879336       8.28073153       6.13819840       7.91096305       3.52277316       4.40576618
         6.44615324       1.78883608       1.41873310       1.39913885       2.21383432       7.53778408       8.24280307       6.45910774       3.46738581       2.22789214
         8.57619881       9.85762335       9.09403458       1.37473309       8.13082934       1.50102419       3.61122954       1.04786449       7.88783924       6.68977118
END griddata

