# File generated by Flopy version 3.10.0.dev5 on 01/30/2026 at 12:54:02.
BEGIN options
  XT3D_OFF
END options

BEGIN griddata
  ktw
    CONSTANT   50112.00000000
  kts
    CONSTANT   21600.00000000
END griddata

