# File generated by Flopy version 3.10.0.dev5 on 01/30/2026 at 12:54:02.
BEGIN options
  VISCREF  8.90400000E-04
  THERMAL_FORMULATION  nonlinear
  THERMAL_A2      10.00000000
  THERMAL_A3     248.37000000
  THERMAL_A4     133.16000000
  VISCOSITY  FILEOUT  ex-gwf-vsc-02.vsc.bin
END options

BEGIN dimensions
  NVISCSPECIES  1
END dimensions

BEGIN packagedata
  1       0.00000000      20.00000000  ex-gwe-vsc-02  TEMPERATURE
END packagedata

