# File generated by Flopy version 3.10.0 on 05/09/2026 at 09:47:16.
BEGIN options
END options

BEGIN timing
  TDIS6  sim_model_0250.tdis
END timing

BEGIN models
  gwf6  sim_model_0250.nam  sim_model_0250
END models

BEGIN exchanges
END exchanges

BEGIN solutiongroup  1
  ims6  sim_model_0250.ims  sim_model_0250
END solutiongroup  1

