# File generated by Flopy version 3.10.0.dev5 on 01/30/2026 at 12:53:44.
BEGIN options
END options

BEGIN period  1
  PRINT  BUDGET  LAST
END period  1

