# File generated by Flopy version 3.10.0.dev5 on 01/30/2026 at 12:53:41.
BEGIN options
  SAVE_FLOWS
  SAVE_SPECIFIC_DISCHARGE
END options

BEGIN griddata
  icelltype
    CONSTANT  0
  k
    CONSTANT       0.01900000
  k33
    CONSTANT       0.01900000
END griddata

