# File generated by Flopy version 3.10.0.dev5 on 01/30/2026 at 12:54:32.
BEGIN options
  SAVE_FLOWS
  SAVE_SPECIFIC_DISCHARGE
  SAVE_SATURATION
END options

BEGIN griddata
  icelltype
    CONSTANT  0
  k
    CONSTANT       0.00800000
  k33
    CONSTANT       0.00800000
END griddata

