# File generated by Flopy version 3.8.0 on 05/07/2026 at 20:45:02.
BEGIN options
  TIME_UNITS  days
END options

BEGIN dimensions
  NPER  1
END dimensions

BEGIN perioddata
       1.00000000  1       1.00000000
END perioddata

