# File generated by Flopy version 3.10.0.dev5 on 01/30/2026 at 12:54:26.
BEGIN options
  SAVE_FLOWS
END options

BEGIN packagedata
  GWFHEAD  FILEIN  ../gwf_voronoi/gwf_voronoi.hds
  GWFBUDGET  FILEIN  ../gwf_voronoi/gwf_voronoi.bud
END packagedata

