# File generated by Flopy version 3.10.0 on 05/09/2026 at 09:47:37.
BEGIN options
  SAVE_FLOWS
END options

BEGIN packages
  DIS6  sim_model_0515.dis  dis
  STO6  sim_model_0515.sto  sto
  NPF6  sim_model_0515.npf  npf
  IC6  sim_model_0515.ic  ic
  CHD6  sim_model_0515.chd  chd_0
  OC6  sim_model_0515.oc  oc
END packages

