# File generated by Flopy version 3.8.0 on 05/07/2026 at 20:44:05.
BEGIN options
  SAVE_FLOWS
END options

BEGIN griddata
  icelltype
    CONSTANT  0
  k
    INTERNAL  FACTOR  1.0
         5.64758765       6.13600828       1.25626804       2.54369491       7.16749284       8.50507176       3.76269598       9.04251772       7.49389476       2.70945059
         5.98804832       4.16918759       2.63703162       8.07041586       9.68934900       3.09118296       1.75205290       6.43193580       7.56093482       3.48614946
         7.16775696       5.66080727       1.43636084       2.24082314       2.68270684       9.94886111       5.68598857       6.20910582       7.61337152       5.87765595
         9.21838202       8.27128136       4.62698048       4.21501909       9.57589043       4.09268420       8.78589835       8.47249941       5.84345304       9.30222435
         1.87431832       1.92562744       7.31356566       9.01431882       2.43604271       3.48015290       7.05242377       2.47872812       7.31234023       5.38871700
         7.12609991       5.69393373       1.39057025       3.01542943       6.17684578       2.08390294       5.50105042       2.24208611       1.47527561       2.60449230
         4.98131318       8.89828592       9.54337716       5.30350675       5.15007408       6.73560128       3.92147197       2.05820284       1.45990897       6.73892788
         8.31039305       7.03234378       6.86590933       4.82112049       6.90935803       2.88245349       6.93932067       5.76661059       7.73668333       1.84381170
         8.06069665       7.18517834       7.25570647       5.47179868       9.77825014       2.83174859       3.69118369       3.04890304       1.43351997       9.13574222
         1.72093185       6.46494645       6.67762033       4.40147739       1.11916910       8.57997471       4.46443971       5.96499261       7.39484326       7.07750966
END griddata

