# File generated by Flopy version 3.10.0.dev5 on 01/30/2026 at 12:54:03.
BEGIN options
END options

BEGIN continuous  FILEOUT  ex-gwf-advtidal.obs.flow.csv
  icf1  flow-ja-face  1 5 6  1 6 6
END continuous  FILEOUT  ex-gwf-advtidal.obs.flow.csv

BEGIN continuous  FILEOUT  ex-gwf-advtidal.obs.head.csv
  h1_13_8  head  3 13 8
END continuous  FILEOUT  ex-gwf-advtidal.obs.head.csv

