# File generated by Flopy version 3.10.0 on 05/09/2026 at 09:48:08.
BEGIN options
  SAVE_FLOWS
END options

BEGIN packages
  DIS6  sim_model_0913.dis  dis
  STO6  sim_model_0913.sto  sto
  NPF6  sim_model_0913.npf  npf
  IC6  sim_model_0913.ic  ic
  CHD6  sim_model_0913.chd  chd_0
  OC6  sim_model_0913.oc  oc
END packages

