# File generated by Flopy version 3.10.0.dev5 on 01/30/2026 at 12:53:33.
BEGIN options
END options

BEGIN timing
  TDIS6  ex-gwf-capture.tdis
END timing

BEGIN models
  gwf6  ex-gwf-capture.nam  ex-gwf-capture
END models

BEGIN exchanges
END exchanges

BEGIN solutiongroup  1
  ims6  ex-gwf-capture.ims  ex-gwf-capture
END solutiongroup  1

