# File generated by Flopy version 3.10.0.dev5 on 01/30/2026 at 12:55:20.
BEGIN options
END options

BEGIN period  1
  PRINT  budget  all
END period  1

