# File generated by Flopy version 3.5.0 on 04/28/2026 at 17:10:06.
BEGIN options
END options

