# File generated by Flopy version 3.5.0 on 04/28/2026 at 17:10:06.
BEGIN options
END options

BEGIN dimensions
  NPER  1
END dimensions

BEGIN perioddata
       1.00000000  1       1.00000000
END perioddata

