# File generated by Flopy version 3.5.0 on 04/28/2026 at 17:17:30.
BEGIN options
END options

BEGIN timing
  TDIS6  test.tdis
END timing

BEGIN models
  gwf6  model.nam  model
END models

BEGIN exchanges
END exchanges

BEGIN solutiongroup  1
  ims6  test.ims  model
END solutiongroup  1

