# File generated by Flopy version 3.5.0 on 04/28/2026 at 17:17:30.
BEGIN options
END options

BEGIN griddata
  icelltype
    CONSTANT  1
  k
    CONSTANT       1.00000000
END griddata

