# File generated by Flopy version 3.10.0.dev5 on 01/30/2026 at 12:54:42.
BEGIN options
  SAVE_SPECIFIC_DISCHARGE
END options

BEGIN griddata
  icelltype
    CONSTANT  0
  k
    CONSTANT       1.00000000
  k33
    CONSTANT       1.00000000
END griddata

