# File generated by Flopy version 3.10.0.dev5 on 01/30/2026 at 12:54:42.
BEGIN options
  auxiliary  CONCENTRATION
  PRINT_INPUT
  PRINT_FLOWS
END options

BEGIN dimensions
  MAXBOUND  1
END dimensions

BEGIN period  1
  1 16 16 1.00000000E+00 1.00000000E+03
END period  1

