# File generated by Flopy version 3.10.0.dev5 on 01/30/2026 at 12:53:48.
BEGIN options
  TIME_UNITS  days
END options

BEGIN dimensions
  NPER  1
END dimensions

BEGIN perioddata
    5000.00000000  100       1.02000000
END perioddata

