# File generated by Flopy version 3.10.0.dev5 on 01/30/2026 at 12:53:44.
BEGIN options
  DIGITS  10
  PRINT_INPUT
END options

BEGIN continuous  FILEOUT  ex-gwf-drn-p01.surfrate.obs.csv
  surfrate  to-mvr  surfrate
END continuous  FILEOUT  ex-gwf-drn-p01.surfrate.obs.csv

