# File generated by Flopy version 3.10.0.dev5 on 01/30/2026 at 12:54:54.
BEGIN options
END options

BEGIN packagedata
  GWFHEAD  FILEIN  ../mf6gwf/flow.hds
  GWFBUDGET  FILEIN  ../mf6gwf/flow.bud
  GWFMOVER  FILEIN  ../mf6gwf/flow.mvr.bud
  LAK-1  FILEIN  ../mf6gwf/flow.lak.bud
  SFR-1  FILEIN  ../mf6gwf/flow.sfr.bud
END packagedata

