# File generated by Flopy version 3.10.0.dev5 on 01/30/2026 at 12:55:23.
BEGIN options
END options

BEGIN dimensions
  NPER  1
END dimensions

BEGIN perioddata
       1.00000000  1       1.00000000
END perioddata

