# File generated by Flopy version 3.10.0.dev5 on 01/30/2026 at 12:53:46.
BEGIN options
  
  SAVE_SPECIFIC_DISCHARGE
END options

BEGIN griddata
  icelltype
    CONSTANT  0
  k
    CONSTANT       1.00000000
  k22
    CONSTANT       0.01000000
  angle1
    CONSTANT      90.00000000
END griddata

