# File generated by Flopy version 3.10.0.dev5 on 01/30/2026 at 12:53:46.
BEGIN options
  LENGTH_UNITS  meters
END options

BEGIN dimensions
  NLAY  1
  NROW  51
  NCOL  51
END dimensions

BEGIN griddata
  delr
    CONSTANT       1.00000000
  delc
    CONSTANT       1.00000000
  top
    CONSTANT       0.00000000
  botm
    CONSTANT     -10.00000000
END griddata

