# File generated by Flopy version 3.10.0.dev5 on 01/30/2026 at 12:55:16.
BEGIN options
END options

BEGIN dimensions
  MAXBOUND  1
END dimensions

BEGIN period  1
  3 11 10 -1.50000000E+05
END period  1

