# File generated by Flopy version 3.10.0.dev5 on 01/30/2026 at 12:54:58.
BEGIN options
  DENSEREF    1000.00000000
END options

BEGIN dimensions
  NRHOSPECIES  1
END dimensions

BEGIN packagedata
  1       0.70000000       0.00000000  trans  concentration
END packagedata

