# File generated by Flopy version 3.10.0.dev5 on 01/30/2026 at 12:55:19.
BEGIN options
  BUDGET  FILEOUT  ex-gwf-sfr-p01b.cbc
  HEAD  FILEOUT  ex-gwf-sfr-p01b.hds
END options

BEGIN period  1
  SAVE  HEAD  LAST
  SAVE  BUDGET  LAST
END period  1

