# File generated by Flopy version 3.10.0.dev5 on 01/30/2026 at 12:55:19.
BEGIN options
END options

BEGIN timing
  TDIS6  ex-gwf-sfr-p01b.tdis
END timing

BEGIN models
  gwf6  ex-gwf-sfr-p01b.nam  ex-gwf-sfr-p01b
END models

BEGIN exchanges
END exchanges

BEGIN solutiongroup  1
  ims6  ex-gwf-sfr-p01b.ims  ex-gwf-sfr-p01b
END solutiongroup  1

