# File generated by Flopy version 3.10.0.dev5 on 01/30/2026 at 12:54:00.
BEGIN options
END options

BEGIN griddata
  strt
    CONSTANT      10.00000000
END griddata

