# File generated by Flopy version 3.8.0 on 05/07/2026 at 20:44:11.
BEGIN options
  BUDGET  FILEOUT  hydro_sim2real.cbc
  HEAD  FILEOUT  hydro_sim2real.hds
END options

BEGIN period  1
  SAVE  HEAD  LAST
  SAVE  BUDGET  LAST
  PRINT  HEAD  LAST
  PRINT  BUDGET  LAST
END period  1

