# File generated by Flopy version 3.10.0.dev5 on 01/30/2026 at 12:53:31.
BEGIN options
  LENGTH_UNITS  feet
END options

BEGIN dimensions
  NLAY  2
  NROW  10
  NCOL  15
END dimensions

BEGIN griddata
  delr
    CONSTANT     500.00000000
  delc
    CONSTANT     500.00000000
  top
    CONSTANT     150.00000000
  botm  LAYERED
    CONSTANT      50.00000000
    CONSTANT     -50.00000000
END griddata

