# File generated by Flopy version 3.8.0 on 05/07/2026 at 20:45:19.
BEGIN options
  SAVE_FLOWS
END options

BEGIN griddata
  icelltype
    CONSTANT  0
  k
    INTERNAL  FACTOR  1.0
         6.76057643       1.37358475       5.91463185       7.98014406       8.21849174       6.63846470       3.05271290       7.80234099       8.56474292       6.53516694
         6.23898464       9.06374739       4.37258496       7.82020200       4.89425416       9.24210878       9.64584349       6.31823306       9.02756072       3.50598729
         2.89637856       2.36399009       5.53212349       8.96173562       7.65751340       7.73322596       1.47991004       2.04841736       1.06057972       7.95267724
         2.33770081       1.78042677       7.07807155       3.67708185       4.06893462       5.53436279       6.22444419       3.55572466       8.09606909       8.99131915
         5.82613233       6.03008055       3.96688743       3.49432258       7.99899616       8.34240102       4.76171845       3.61819944       1.83403413       3.19334596
         5.86810446       5.57694522       7.31178388       2.33108053       7.84862978       8.09469055       5.52562253       7.57337945       5.37621721       4.33868355
         6.13914133       7.95574701       4.86901107       4.91612209       8.49099300       7.06750666       8.71141798       8.27654014       5.60293810       3.38175868
         1.55397154       8.77916985       9.75206894       6.43535698       2.33478469       7.24012542       3.15356206       7.42056289       1.01004113       2.92214482
         8.47385597       9.49399462       8.27557033       5.76858043       2.97864084       3.23367549       5.80060385       6.76316303       3.84096025       6.76268878
         7.25113005       6.22746871       1.99319518       5.62041183       4.55729454       7.34992704       4.59622746       8.73907669       9.68636992       7.80676685
END griddata

