# File generated by Flopy version 3.10.0.dev5 on 01/30/2026 at 12:53:43.
BEGIN options
  XT3D
  SAVE_SPECIFIC_DISCHARGE
END options

BEGIN griddata
  icelltype
    CONSTANT  0
  k
    CONSTANT      10.00000000
  k33
    CONSTANT       0.20000000
END griddata

