# File generated by Flopy version 3.10.0.dev5 on 01/30/2026 at 12:55:13.
BEGIN options
  auxiliary  depth
  AUXDEPTHNAME  depth
END options

BEGIN dimensions
  MAXBOUND  1445
END dimensions

BEGIN period  1
  1 437 3.46841615E+00 6.19810422E+01 -3.04800000E-01
  1 438 3.40721621E+00 1.25370489E+02 -3.04800000E-01
  1 439 3.37306280E+00 1.14674894E+02 -3.04800000E-01
  1 440 3.37066282E+00 1.01394396E+02 -3.04800000E-01
  1 441 3.36826283E+00 9.88392339E+01 -3.04800000E-01
  1 442 3.36807072E+00 8.77570036E+01 -3.04800000E-01
  1 443 3.36807072E+00 9.88392339E+01 -3.04800000E-01
  1 444 3.36807072E+00 9.70457585E+01 -3.04800000E-01
  1 445 3.36807072E+00 1.03787892E+02 -3.04800000E-01
  1 446 3.36807072E+00 1.18624432E+02 -3.04800000E-01
  1 447 3.36303127E+00 1.18624432E+02 -3.04800000E-01
  1 448 3.35703125E+00 9.70457585E+01 -3.04800000E-01
  1 449 3.35283053E+00 8.40026943E+01 -3.04800000E-01
  1 450 3.35283053E+00 1.11151977E+02 -3.04800000E-01
  1 451 3.35283053E+00 1.11882298E+02 -3.04800000E-01
  1 452 3.33049067E+00 8.89513524E+01 -3.04800000E-01
  1 453 3.30109069E+00 1.11882298E+02 -3.04800000E-01
  1 454 3.28092383E+00 1.18624432E+02 -3.04800000E-01
  1 455 3.29352381E+00 8.89513524E+01 -3.04800000E-01
  1 456 3.30612379E+00 8.39950490E+01 -3.04800000E-01
  1 457 3.31015813E+00 9.82909344E+01 -3.04800000E-01
  1 458 3.31015813E+00 9.88392339E+01 -3.04800000E-01
  1 459 3.31015813E+00 8.89513524E+01 -3.04800000E-01
  1 460 3.31015813E+00 1.11882298E+02 -3.04800000E-01
  1 461 3.31015813E+00 1.11151977E+02 -3.04800000E-01
  1 462 3.30332078E+00 8.34113639E+01 -3.04800000E-01
  1 463 3.29192077E+00 8.41766943E+01 -3.04800000E-01
  1 464 3.27571736E+00 1.03290399E+02 -3.04800000E-01
  1 465 3.18391737E+00 9.43214713E+01 -3.04800000E-01
  1 466 3.09211739E+00 5.53513524E+01 -3.04800000E-01
  1 467 3.04802790E+00 4.42245315E+01 -3.04800000E-01
  1 474 3.43019618E+00 4.01877132E+01 -3.04800000E-01
  1 475 3.33839620E+00 8.26379816E+01 -3.04800000E-01
  1 476 3.28882194E+00 9.74688938E+01 -3.04800000E-01
  1 477 3.28882194E+00 1.08786192E+02 -3.04800000E-01
  1 478 3.28882194E+00 1.10975400E+02 -3.04800000E-01
  1 479 3.28330220E+00 9.10099413E+01 -3.04800000E-01
  1 480 3.27730218E+00 8.17739104E+01 -3.04800000E-01
  1 481 3.23984406E+00 8.46517258E+01 -3.04800000E-01
  1 482 3.15104408E+00 5.66349495E+01 -3.04800000E-01
  1 483 3.06224411E+00 6.46414862E+00 -3.04800000E-01
  1 484 3.04802789E+00 7.73093242E+00 -3.04800000E-01
  1 517 5.24204584E+00 6.39076121E+01 -3.04800000E-01
  1 518 4.87724588E+00 1.37038625E+02 -3.04800000E-01
  1 519 4.68024546E+00 1.18624432E+02 -3.04800000E-01
  1 520 4.68024546E+00 1.03787892E+02 -3.04800000E-01
  1 521 4.68024546E+00 8.40026943E+01 -3.04800000E-01
  1 522 4.66865413E+00 9.63154371E+01 -3.04800000E-01
  1 523 4.65605419E+00 1.11882298E+02 -3.04800000E-01
  1 524 4.64824136E+00 1.03787892E+02 -3.04800000E-01
  1 525 4.64824136E+00 1.03787892E+02 -3.04800000E-01
  1 526 4.64824136E+00 9.88392339E+01 -3.04800000E-01
  1 527 4.68351745E+00 9.63154371E+01 -3.04800000E-01
  1 528 4.72551751E+00 1.04409843E+02 -3.04800000E-01
  1 529 4.75168363E+00 9.88392339E+01 -3.04800000E-01
  1 530 4.74088356E+00 1.03787892E+02 -3.04800000E-01
  1 531 4.73008348E+00 1.18624432E+02 -3.04800000E-01
  1 532 4.72748998E+00 1.11141910E+02 -3.04800000E-01
  1 533 4.72748998E+00 9.82834591E+01 -3.04800000E-01
  1 534 4.81441392E+00 9.67891934E+01 -3.04800000E-01
  1 535 5.20981392E+00 6.44353621E+01 -3.04800000E-01
  1 536 5.60521392E+00 2.55845075E+01 -3.04800000E-01
  1 543 3.04802775E+00 1.93273310E+00 -3.04800000E-01
  1 544 3.32642733E+00 4.17779959E+01 -3.04800000E-01
  1 545 3.60482734E+00 8.75525249E+01 -3.04800000E-01
  1 546 3.95995145E+00 7.29744091E+01 -3.04800000E-01
  1 547 4.40515138E+00 3.42724908E+01 -3.04800000E-01
  1 548 4.85035131E+00 1.61603715E+00 -3.04800000E-01
  1 555 3.64391720E+00 9.64372004E+01 -3.04800000E-01
  1 556 3.64391720E+00 1.12018415E+02 -3.04800000E-01
  1 557 3.64391720E+00 1.03787892E+02 -3.04800000E-01
  1 558 3.64391720E+00 1.18624432E+02 -3.04800000E-01
  1 559 3.64391720E+00 1.04400013E+02 -3.04800000E-01
  1 565 3.28424961E+00 1.10561329E+01 -3.04800000E-01
  1 566 3.30044963E+00 5.28929380E+01 -3.04800000E-01
  1 567 3.31664965E+00 8.97042778E+01 -3.04800000E-01
  1 568 3.45787138E+00 7.13033424E+01 -3.04800000E-01
  1 569 3.74587141E+00 3.42724908E+01 -3.04800000E-01
  1 570 4.03387143E+00 1.61603715E+00 -3.04800000E-01
  1 582 3.04802775E+00 7.73093242E+00 -3.04800000E-01
  1 583 3.25922742E+00 3.45778591E+01 -3.04800000E-01
  1 584 3.47042742E+00 8.73800753E+01 -3.04800000E-01
  1 585 3.75559170E+00 7.43470992E+01 -3.04800000E-01
  1 586 4.12759169E+00 3.42724908E+01 -3.04800000E-01
  1 587 4.49959168E+00 1.61603715E+00 -3.04800000E-01
  1 588 4.52936904E+00 1.53506791E+00 -3.04800000E-01
  1 589 4.40756905E+00 4.01877132E+01 -3.04800000E-01
  1 590 4.28576905E+00 8.28240842E+01 -3.04800000E-01
  1 591 4.21999443E+00 9.76760670E+01 -3.04800000E-01
  1 592 4.21999443E+00 1.16957360E+02 -3.04800000E-01
  1 593 4.21999443E+00 1.35184506E+02 -3.04800000E-01
  1 594 4.06654591E+00 9.60144756E+01 -3.04800000E-01
  1 595 3.89974595E+00 8.39950490E+01 -3.04800000E-01
  1 596 3.80885638E+00 9.82909344E+01 -3.04800000E-01
  1 597 3.84185631E+00 9.88392339E+01 -3.04800000E-01
  1 598 3.87485624E+00 8.89513524E+01 -3.04800000E-01
  1 599 3.88013923E+00 1.03787892E+02 -3.04800000E-01
  1 600 3.88013923E+00 1.18624432E+02 -3.04800000E-01
  1 601 3.86970321E+00 1.18624432E+02 -3.04800000E-01
  1 602 3.83490324E+00 1.03787892E+02 -3.04800000E-01
  1 603 3.80010327E+00 1.03787892E+02 -3.04800000E-01
  1 604 3.79174650E+00 1.18624432E+02 -3.04800000E-01
  1 605 3.79174650E+00 1.18624432E+02 -3.04800000E-01
  1 606 3.79174650E+00 9.70457585E+01 -3.04800000E-01
  1 607 3.79174650E+00 8.89513524E+01 -3.04800000E-01
  1 608 3.79174650E+00 1.18624432E+02 -3.04800000E-01
  1 609 3.77094412E+00 1.18624432E+02 -3.04800000E-01
  1 610 3.74034412E+00 1.03787892E+02 -3.04800000E-01
  1 611 3.71309917E+00 9.70457585E+01 -3.04800000E-01
  1 612 3.70649916E+00 1.03787892E+02 -3.04800000E-01
  1 613 3.69989916E+00 1.18624432E+02 -3.04800000E-01
  1 614 3.69725764E+00 9.63224925E+01 -3.04800000E-01
  1 615 3.69725764E+00 8.41766943E+01 -3.04800000E-01
  1 616 3.69998210E+00 1.04714137E+02 -3.04800000E-01
  1 617 3.74558215E+00 1.26238704E+02 -3.04800000E-01
  1 618 3.79118220E+00 5.66526565E+01 -3.04800000E-01
  1 843 4.46440905E+00 1.28983044E+01 -3.04800000E-01
  1 849 3.04747763E+00 4.70460043E+00 -3.04800000E-01
  1 851 3.04766099E+00 4.70460043E+00 -3.04800000E-01
  1 852 3.19650732E+00 9.36604386E+00 -3.04800000E-01
  1 853 3.47303617E+00 1.28983044E+01 -3.04800000E-01
  1 857 4.49688904E+00 4.80120420E+00 -3.04800000E-01
  1 861 3.12226732E+00 3.59929355E+00 -3.04800000E-01
  1 862 3.49751617E+00 4.80120420E+00 -3.04800000E-01
  1 864 4.51312904E+00 2.26175692E+00 -3.04800000E-01
  1 868 3.08514732E+00 2.26175692E+00 -3.04800000E-01
  1 869 3.50975617E+00 2.26175692E+00 -3.04800000E-01
  1 873 4.31359169E+00 1.41587374E+01 -3.04800000E-01
  1 875 3.88987142E+00 1.41587374E+01 -3.04800000E-01
  1 877 4.62775135E+00 1.41587374E+01 -3.04800000E-01
  1 880 3.04741683E+00 5.46960027E+00 -3.04800000E-01
  1 886 3.04711140E+00 5.46960027E+00 -3.04800000E-01
  1 887 4.40659169E+00 3.93014267E+00 -3.04800000E-01
  1 889 3.96187143E+00 3.93014267E+00 -3.04800000E-01
  1 891 4.73905133E+00 3.93014267E+00 -3.04800000E-01
  1 894 3.06295323E+00 3.08619136E+00 -3.04800000E-01
  1 900 3.05253139E+00 3.08619136E+00 -3.04800000E-01
  1 901 4.40570270E+00 5.11732699E+00 -3.04800000E-01
  1 902 3.97204513E+00 5.11732699E+00 -3.04800000E-01
  1 903 4.73285915E+00 5.11732699E+00 -3.04800000E-01
  1 905 3.48288562E+00 5.11732699E+00 -3.04800000E-01
  1 906 3.46750956E+00 5.11732699E+00 -3.04800000E-01
  1 908 3.04700393E+00 6.87221654E+00 -3.04800000E-01
  1 909 3.04649206E+00 6.87221654E+00 -3.04800000E-01
  1 910 4.45309168E+00 2.41837227E+00 -3.04800000E-01
  1 913 3.99787143E+00 2.41837227E+00 -3.04800000E-01
  1 916 4.79470132E+00 2.41837227E+00 -3.04800000E-01
  1 920 3.06082140E+00 1.18702409E+01 -3.04800000E-01
  1 928 3.05188817E+00 1.18702409E+01 -3.04800000E-01
  1 929 3.16066742E+00 1.29935507E+01 -3.04800000E-01
  1 930 3.04753875E+00 1.88184017E+01 -3.04800000E-01
  1 931 3.04191519E+00 1.88184017E+01 -3.04800000E-01
  1 933 3.04754210E+00 1.67594596E+01 -3.04800000E-01
  1 934 3.11787904E+00 5.52337477E+00 -3.04800000E-01
  1 935 3.04729930E+00 1.69664948E+01 -3.04800000E-01
  1 936 3.06910383E+00 5.52337477E+00 -3.04800000E-01
  1 947 3.10434742E+00 9.04702769E+00 -3.04800000E-01
  1 949 3.04591763E+00 2.47324548E+01 -3.04800000E-01
  1 950 3.04486263E+00 2.47324548E+01 -3.04800000E-01
  1 951 3.04553030E+00 2.15924953E+01 -3.04800000E-01
  1 952 3.16497238E+00 2.47714106E+01 -3.04800000E-01
  1 953 3.04428164E+00 3.30875010E+01 -3.04800000E-01
  1 954 3.08331302E+00 2.19236873E+01 -3.04800000E-01
  1 955 3.29288962E+00 1.26982684E+01 -3.04800000E-01
  1 958 4.31777465E+00 7.37812132E+00 -3.04800000E-01
  1 959 3.90399160E+00 7.37812132E+00 -3.04800000E-01
  1 960 4.62761979E+00 7.37812132E+00 -3.04800000E-01
  1 962 3.46046430E+00 7.37812132E+00 -3.04800000E-01
  1 963 3.44593949E+00 7.37812132E+00 -3.04800000E-01
  1 965 3.23970846E+00 4.13248972E+01 -3.04800000E-01
  1 967 3.04721321E+00 2.18784011E+01 -3.04800000E-01
  1 968 3.10664410E+00 1.57205707E+01 -3.04800000E-01
  1 969 3.03784600E+00 2.18784011E+01 -3.04800000E-01
  1 970 3.28856962E+00 8.99708480E+00 -3.04800000E-01
  1 972 4.15825827E+00 2.56512013E+01 -3.04800000E-01
  1 973 4.31129872E+00 2.23182358E+01 -3.04800000E-01
  1 974 3.78564221E+00 2.56512013E+01 -3.04800000E-01
  1 975 3.90369848E+00 2.23182358E+01 -3.04800000E-01
  1 976 4.43428458E+00 2.56512013E+01 -3.04800000E-01
  1 977 4.57205685E+00 2.23182358E+01 -3.04800000E-01
  1 980 3.41621400E+00 2.56512013E+01 -3.04800000E-01
  1 981 3.44275183E+00 2.23182358E+01 -3.04800000E-01
  1 982 3.40332349E+00 2.56512013E+01 -3.04800000E-01
  1 983 3.42831608E+00 2.23182358E+01 -3.04800000E-01
  1 987 3.07067364E+00 1.19375609E+01 -3.04800000E-01
  1 989 3.05754960E+00 1.19375609E+01 -3.04800000E-01
  1 991 3.23478790E+00 2.49200194E+01 -3.04800000E-01
  1 994 3.25875875E+00 1.19375609E+01 -3.04800000E-01
  1 1002 3.06743914E+00 4.74809638E+01 -3.04800000E-01
  1 1003 3.04666269E+00 2.74888662E+01 -3.04800000E-01
  1 1004 3.08444410E+00 9.67348908E+00 -3.04800000E-01
  1 1005 3.05618964E+00 4.74809638E+01 -3.04800000E-01
  1 1006 3.03096437E+00 2.74888662E+01 -3.04800000E-01
  1 1014 3.49697613E+00 3.14478350E+01 -3.04800000E-01
  1 1017 3.04738023E+00 6.76331504E+01 -3.04800000E-01
  1 1018 3.15017547E+00 1.93891942E+01 -3.04800000E-01
  1 1019 3.03993371E+00 6.76331504E+01 -3.04800000E-01
  1 1020 3.09097649E+00 1.93891942E+01 -3.04800000E-01
  1 1021 3.20031953E+00 6.28841346E+01 -3.04800000E-01
  1 1022 3.26576482E+00 1.93891942E+01 -3.04800000E-01
  1 1028 3.22330078E+00 7.92047162E+01 -3.04800000E-01
  1 1029 3.12172235E+00 7.92047162E+01 -3.04800000E-01
  1 1030 3.24606579E+00 7.92047162E+01 -3.04800000E-01
  1 1034 5.41228582E+00 3.15865213E+01 -3.04800000E-01
  1 1039 3.09030057E+00 4.50415247E+01 -3.04800000E-01
  1 1042 3.06078274E+00 4.50415247E+01 -3.04800000E-01
  1 1043 3.26637048E+00 6.66843299E+01 -3.04800000E-01
  1 1046 3.85469453E+00 6.07215491E+01 -3.04800000E-01
  1 1047 3.56667967E+00 6.07215491E+01 -3.04800000E-01
  1 1048 4.06340751E+00 6.08044428E+01 -3.04800000E-01
  1 1050 3.32762746E+00 6.11621199E+01 -3.04800000E-01
  1 1051 3.31795728E+00 6.07215491E+01 -3.04800000E-01
  1 1053 3.24097723E+00 3.79147992E+01 -3.04800000E-01
  1 1054 3.04521432E+00 9.89298193E+01 -3.04800000E-01
  1 1055 3.01285957E+00 8.83496183E+01 -3.04800000E-01
  1 1056 3.04469788E+00 8.99490971E+01 -3.04800000E-01
  1 1057 3.00640410E+00 7.85347625E+01 -3.04800000E-01
  1 1074 3.04247972E+00 7.38631101E+01 -3.04800000E-01
  1 1075 3.10678001E+00 7.42534287E+01 -3.04800000E-01
  1 1083 4.89779208E+00 8.86723739E+01 -3.04800000E-01
  1 1084 3.37789270E+00 6.63141070E+01 -3.04800000E-01
  1 1087 4.79556137E+00 9.03385818E+01 -3.04800000E-01
  1 1090 3.04673662E+00 3.20941409E+01 -3.04800000E-01
  1 1091 3.04609110E+00 3.20941409E+01 -3.04800000E-01
  1 1092 3.04649049E+00 6.38314393E+01 -3.04800000E-01
  1 1093 3.20349931E+00 1.01684197E+02 -3.04800000E-01
  1 1095 3.14501681E+00 8.80431794E+01 -3.04800000E-01
  1 1096 3.03042351E+00 7.85646340E+01 -3.04800000E-01
  1 1103 3.58085384E+00 7.25169880E+01 -3.04800000E-01
  1 1106 3.02847879E+00 7.20538124E+01 -3.04800000E-01
  1 1107 3.04680882E+00 4.08833704E+01 -3.04800000E-01
  1 1121 3.04480090E+00 8.81429113E+01 -3.04800000E-01
  1 1122 3.04318756E+00 9.41169647E+01 -3.04800000E-01
  1 1123 3.04516795E+00 3.53547513E+01 -3.04800000E-01
  1 1124 3.14791461E+00 9.74435395E+01 -3.04800000E-01
  1 1131 3.06551775E+00 4.56652038E+01 -3.04800000E-01
  1 1138 3.04224613E+00 6.86754889E+01 -3.04800000E-01
  1 1139 3.03935545E+00 9.08687425E+01 -3.04800000E-01
  1 1168 5.40751392E+00 3.78592176E+01 -3.04800000E-01
  1 1172 3.98048349E+00 7.76109604E+01 -3.04800000E-01
  1 1173 3.67317810E+00 7.76109604E+01 -3.04800000E-01
  1 1174 4.11356700E+00 7.38070163E+01 -3.04800000E-01
  1 1176 3.32641339E+00 7.90243037E+01 -3.04800000E-01
  1 1177 3.31556682E+00 7.76109604E+01 -3.04800000E-01
  1 1188 3.04484452E+00 1.00958579E+02 -3.04800000E-01
  1 1192 3.04134102E+00 9.96630527E+01 -3.04800000E-01
  1 1194 3.13635631E+00 6.70824328E+01 -3.04800000E-01
  1 1195 3.04249735E+00 4.13044366E+01 -3.04800000E-01
  1 1196 3.03973227E+00 7.81244092E+01 -3.04800000E-01
  1 1272 3.03432437E+00 1.03283833E+02 -3.04800000E-01
  1 1273 3.04279796E+00 5.19175578E+01 -3.04800000E-01
  1 1326 3.03745981E+00 9.10522698E+01 -3.04800000E-01
  1 1375 3.32568360E+00 6.70907832E+01 -3.04800000E-01
  1 1378 3.13180345E+00 6.70907832E+01 -3.04800000E-01
  1 1393 3.18883330E+00 9.88013902E+01 -3.04800000E-01
  1 1394 3.03014013E+00 9.67465925E+01 -3.04800000E-01
  1 1422 3.03897794E+00 8.09480807E+01 -3.04800000E-01
  1 1462 3.03780096E+00 1.38156045E+02 -3.04800000E-01
  1 1480 3.03232809E+00 1.25972915E+02 -3.04800000E-01
  1 1552 3.11216616E+00 1.19058245E+02 -3.04800000E-01
  1 1553 3.07499531E+00 1.34860297E+02 -3.04800000E-01
  1 1554 3.04657675E+00 1.32988510E+02 -3.04800000E-01
  1 1555 3.02989011E+00 1.32988510E+02 -3.04800000E-01
  1 1556 3.07707638E+00 1.13022857E+02 -3.04800000E-01
  1 1557 3.45268176E+00 8.76861482E+01 -3.04800000E-01
  1 1558 3.34133054E+00 1.04728105E+02 -3.04800000E-01
  1 1559 3.20340074E+00 1.04728105E+02 -3.04800000E-01
  1 1561 3.17134849E+00 1.04728105E+02 -3.04800000E-01
  1 1564 3.00912103E+00 1.06496522E+02 -3.04800000E-01
  1 1598 3.52604019E+00 1.25268594E+02 -3.04800000E-01
  1 1601 3.19155161E+00 8.27198103E+01 -3.04800000E-01
  1 1606 3.21537557E+00 9.60493318E+01 -3.04800000E-01
  1 1607 3.03375664E+00 1.16875835E+02 -3.04800000E-01
  1 1862 3.69300418E+00 7.92642554E+01 -3.04800000E-01
  1 1863 3.04793111E+00 9.01642196E+01 -3.04800000E-01
  1 1864 3.57326437E+00 8.21703386E+01 -3.04800000E-01
  1 1865 3.39590527E+00 8.21703386E+01 -3.04800000E-01
  1 1867 3.21684951E+00 8.21703386E+01 -3.04800000E-01
  1 2522 3.29939488E+00 1.19856592E+02 -3.04800000E-01
  1 2527 3.53293801E+00 1.14800752E+02 -3.04800000E-01
  1 2528 3.54109304E+00 1.31958733E+02 -3.04800000E-01
  1 2530 3.11432252E+00 1.25662753E+02 -3.04800000E-01
  1 2532 3.11432252E+00 1.31348814E+02 -3.04800000E-01
  1 2533 3.15380491E+00 1.11455382E+02 -3.04800000E-01
  1 2535 3.12260920E+00 1.18576150E+02 -3.04800000E-01
  1 2537 4.44133054E+00 1.05766426E+02 -3.04800000E-01
  1 2538 3.26546552E+00 8.52976308E+01 -3.04800000E-01
  1 2540 4.03149963E+00 8.97229172E+01 -3.04800000E-01
  1 2542 3.15691110E+00 1.41485781E+02 -3.04800000E-01
  1 2543 3.06708132E+00 1.12129562E+02 -3.04800000E-01
  1 2544 3.43243555E+00 1.02145878E+02 -3.04800000E-01
  1 2550 3.11524329E+00 1.14664337E+02 -3.04800000E-01
  1 2551 3.22803611E+00 1.31958997E+02 -3.04800000E-01
  1 2553 3.12076770E+00 1.34565005E+02 -3.04800000E-01
  1 2557 3.14010363E+00 1.41366699E+02 -3.04800000E-01
  1 2558 3.01891522E+00 1.19571425E+02 -3.04800000E-01
  1 2559 3.55536481E+00 1.25232426E+02 -3.04800000E-01
  1 2560 3.04630628E+00 1.26552665E+02 -3.04800000E-01
  1 2561 3.38940834E+00 9.84923515E+01 -3.04800000E-01
  1 2562 3.02650930E+00 9.08074884E+01 -3.04800000E-01
  1 2563 3.18840606E+00 1.12417384E+02 -3.04800000E-01
  1 2564 3.40205952E+00 1.25028529E+02 -3.04800000E-01
  1 2565 3.04415801E+00 1.07324210E+02 -3.04800000E-01
  1 2566 3.12260920E+00 1.52929778E+02 -3.04800000E-01
  1 2567 2.99965562E+00 1.15780560E+02 -3.04800000E-01
  1 2568 3.08427711E+00 1.00855940E+02 -3.04800000E-01
  1 2569 3.26900989E+00 1.41812078E+02 -3.04800000E-01
  1 2570 2.95893760E+00 1.15061920E+02 -3.04800000E-01
  1 2583 3.06207092E+00 1.25132310E+02 -3.04800000E-01
  1 2587 3.05226518E+00 1.06326526E+02 -3.04800000E-01
  1 2589 3.05820813E+00 1.30612697E+02 -3.04800000E-01
  1 2590 3.18788373E+00 1.15554567E+02 -3.04800000E-01
  1 2591 3.24414937E+00 1.36441878E+02 -3.04800000E-01
  1 2592 3.27269289E+00 1.25840322E+02 -3.04800000E-01
  1 2597 3.22803611E+00 1.29132810E+02 -3.04800000E-01
  1 2598 3.62080026E+00 1.25873038E+02 -3.04800000E-01
  1 2599 3.19789085E+00 9.30080579E+01 -3.04800000E-01
  1 2600 3.13732795E+00 1.10008395E+02 -3.04800000E-01
  1 2601 3.71228586E+00 1.10492018E+02 -3.04800000E-01
  1 2602 3.09608710E+00 1.07622049E+02 -3.04800000E-01
  1 2603 3.46397691E+00 1.09767618E+02 -3.04800000E-01
  1 2604 3.08428830E+00 1.10008395E+02 -3.04800000E-01
  1 2605 3.17858143E+00 1.10492018E+02 -3.04800000E-01
  1 2888 3.52046694E+00 1.12778243E+02 -3.04800000E-01
  1 2889 3.12721301E+00 1.13247651E+02 -3.04800000E-01
  1 2890 3.27269289E+00 1.19333032E+02 -3.04800000E-01
  1 2891 3.27269289E+00 1.20134105E+02 -3.04800000E-01
  1 2900 3.95656378E+00 1.12778243E+02 -3.04800000E-01
  1 2901 3.97067658E+00 1.12778243E+02 -3.04800000E-01
  1 2902 3.22067003E+00 1.18576150E+02 -3.04800000E-01
  1 2903 3.98933485E+00 1.18841992E+02 -3.04800000E-01
  1 2904 3.22067003E+00 1.33085291E+02 -3.04800000E-01
  1 2905 3.97473441E+00 1.16951312E+02 -3.04800000E-01
  1 2909 3.14470744E+00 1.19856592E+02 -3.04800000E-01
  1 2910 3.11432252E+00 1.51718917E+02 -3.04800000E-01
  1 2911 3.17262724E+00 1.15449194E+02 -3.04800000E-01
  1 2914 3.14470744E+00 1.23225743E+02 -3.04800000E-01
  1 2915 3.17233571E+00 1.18728407E+02 -3.04800000E-01
  1 2916 3.17262724E+00 1.37425761E+02 -3.04800000E-01
  1 2918 3.17189665E+00 1.06466036E+02 -3.04800000E-01
  1 2919 3.11524329E+00 1.45858280E+02 -3.04800000E-01
  1 2920 3.17265051E+00 1.37397155E+02 -3.04800000E-01
  1 2924 3.18820200E+00 1.12778243E+02 -3.04800000E-01
  1 2925 3.22067003E+00 1.18576150E+02 -3.04800000E-01
  1 2926 3.18820200E+00 1.16951312E+02 -3.04800000E-01
  1 2928 4.15487105E+00 8.74522607E+01 -3.04800000E-01
  1 2929 3.19015201E+00 8.85832358E+01 -3.04800000E-01
  1 2930 3.17408894E+00 1.07892504E+02 -3.04800000E-01
  1 2932 3.60627095E+00 1.14264151E+02 -3.04800000E-01
  1 2934 3.35600182E+00 1.23198972E+02 -3.04800000E-01
  1 2935 3.18543348E+00 1.12554712E+02 -3.04800000E-01
  1 2936 2.96202276E+00 9.30735715E+01 -3.04800000E-01
  1 2937 3.46770499E+00 9.94457950E+01 -3.04800000E-01
  1 2947 3.17435781E+00 1.14890516E+02 -3.04800000E-01
  1 2948 3.11432252E+00 1.40561216E+02 -3.04800000E-01
  1 2949 3.17435781E+00 1.35421336E+02 -3.04800000E-01
  1 2950 3.38634964E+00 1.16951312E+02 -3.04800000E-01
  1 2951 3.22803611E+00 1.32424466E+02 -3.04800000E-01
  1 2952 3.38634964E+00 1.31532871E+02 -3.04800000E-01
  1 2953 3.18474094E+00 1.24932690E+02 -3.04800000E-01
  1 2957 3.22108242E+00 1.23232429E+02 -3.04800000E-01
  1 2958 3.12578186E+00 1.21631135E+02 -3.04800000E-01
  1 2959 3.22108242E+00 1.22780660E+02 -3.04800000E-01
  1 2960 4.00155792E+00 1.12778243E+02 -3.04800000E-01
  1 2961 3.48647764E+00 9.41547135E+01 -3.04800000E-01
  1 2962 2.95122795E+00 1.24441995E+02 -3.04800000E-01
  1 2963 3.20292838E+00 1.14731239E+02 -3.04800000E-01
  1 2964 3.71342295E+00 1.12778243E+02 -3.04800000E-01
  1 2965 3.18820200E+00 1.26112038E+02 -3.04800000E-01
  1 2966 3.03033517E+00 1.55086707E+02 -3.04800000E-01
  1 2967 3.01684542E+00 1.00351189E+02 -3.04800000E-01
  1 2977 3.41663418E+00 1.23215395E+02 -3.04800000E-01
  1 2978 3.26023587E+00 1.47206712E+02 -3.04800000E-01
  1 2979 3.47028113E+00 1.15449194E+02 -3.04800000E-01
  1 2984 3.38634964E+00 1.12778243E+02 -3.04800000E-01
  1 2985 3.04432625E+00 1.10830317E+02 -3.04800000E-01
  1 2986 3.04672337E+00 1.27391890E+02 -3.04800000E-01
  1 2987 3.80795497E+00 1.05968331E+02 -3.04800000E-01
  1 2988 3.52236468E+00 1.05257037E+02 -3.04800000E-01
  1 2989 3.03139671E+00 1.33528722E+02 -3.04800000E-01
  1 2990 3.20234538E+00 1.05968331E+02 -3.04800000E-01
  1 3115 3.58840776E+00 9.27662264E+01 -3.04800000E-01
  1 3116 3.12721301E+00 1.44796283E+02 -3.04800000E-01
  1 3117 3.19685476E+00 1.18903214E+02 -3.04800000E-01
  1 3118 3.19685476E+00 1.12778243E+02 -3.04800000E-01
  1 3119 3.27269289E+00 1.40561216E+02 -3.04800000E-01
  1 3120 3.47028113E+00 1.27151841E+02 -3.04800000E-01
  1 3121 3.52046694E+00 1.31196157E+02 -3.04800000E-01
  1 3126 4.08721922E+00 9.27662264E+01 -3.04800000E-01
  1 3127 4.10800293E+00 1.10819980E+02 -3.04800000E-01
  1 3128 3.37250525E+00 1.16951312E+02 -3.04800000E-01
  1 3129 3.37250525E+00 1.12778243E+02 -3.04800000E-01
  1 3130 3.37250525E+00 1.12778243E+02 -3.04800000E-01
  1 3132 3.22973519E+00 1.12778243E+02 -3.04800000E-01
  1 3133 3.14470744E+00 1.32000574E+02 -3.04800000E-01
  1 3134 3.22973519E+00 1.31196157E+02 -3.04800000E-01
  1 3135 3.17262724E+00 1.35435289E+02 -3.04800000E-01
  1 3136 3.19054570E+00 1.10915360E+02 -3.04800000E-01
  1 3139 3.22973519E+00 1.26112038E+02 -3.04800000E-01
  1 3140 3.06114619E+00 1.48752724E+02 -3.04800000E-01
  1 3147 3.20836026E+00 9.27662264E+01 -3.04800000E-01
  1 3148 3.37250525E+00 1.16951312E+02 -3.04800000E-01
  1 3149 3.17851440E+00 1.12778243E+02 -3.04800000E-01
  1 3150 3.20485500E+00 1.10819980E+02 -3.04800000E-01
  1 3151 4.15487399E+00 1.02943188E+02 -3.04800000E-01
  1 3152 3.41103102E+00 1.44846973E+02 -3.04800000E-01
  1 3153 3.13622663E+00 1.24681817E+02 -3.04800000E-01
  1 3154 3.24007260E+00 1.14658238E+02 -3.04800000E-01
  1 3156 3.14991275E+00 1.38324175E+02 -3.04800000E-01
  1 3158 3.43500324E+00 1.10915360E+02 -3.04800000E-01
  1 3159 3.21587185E+00 9.27662264E+01 -3.04800000E-01
  1 3160 3.47575522E+00 1.02035120E+02 -3.04800000E-01
  1 3161 3.09491790E+00 1.03094706E+02 -3.04800000E-01
  1 3168 3.19252514E+00 1.10915360E+02 -3.04800000E-01
  1 3169 3.43500324E+00 1.10819980E+02 -3.04800000E-01
  1 3170 3.20440147E+00 9.55793936E+01 -3.04800000E-01
  1 3175 3.24716988E+00 1.10915360E+02 -3.04800000E-01
  1 3176 3.18775398E+00 1.16951312E+02 -3.04800000E-01
  1 3177 3.23511034E+00 1.10915360E+02 -3.04800000E-01
  1 3178 4.14785992E+00 9.27662264E+01 -3.04800000E-01
  1 3179 3.53013450E+00 1.05920263E+02 -3.04800000E-01
  1 3180 2.99300204E+00 1.37281192E+02 -3.04800000E-01
  1 3181 3.07211746E+00 1.23322703E+02 -3.04800000E-01
  1 3182 3.72080127E+00 9.27786411E+01 -3.04800000E-01
  1 3183 3.04556513E+00 1.22301339E+02 -3.04800000E-01
  1 3184 3.03558207E+00 1.35657469E+02 -3.04800000E-01
  1 3185 3.03929321E+00 1.15458044E+02 -3.04800000E-01
  1 3186 2.98906330E+00 1.10833363E+02 -3.04800000E-01
  1 3193 3.47630710E+00 1.10915360E+02 -3.04800000E-01
  1 3194 3.46777451E+00 1.35512311E+02 -3.04800000E-01
  1 3195 3.53100479E+00 1.10915360E+02 -3.04800000E-01
  1 3197 3.29362641E+00 1.16778639E+02 -3.04800000E-01
  1 3198 3.09976634E+00 1.16778639E+02 -3.04800000E-01
  1 3305 3.57012606E+00 9.06493319E+01 -3.04800000E-01
  1 3306 3.04407957E+00 1.18100496E+02 -3.04800000E-01
  1 3307 3.21825737E+00 1.10915360E+02 -3.04800000E-01
  1 3308 3.21825737E+00 1.10819980E+02 -3.04800000E-01
  1 3309 3.47028113E+00 1.35421336E+02 -3.04800000E-01
  1 3314 3.53142514E+00 1.67085398E+02 -3.04800000E-01
  1 3315 4.10243327E+00 1.04483907E+02 -3.04800000E-01
  1 3316 3.04448797E+00 1.19578007E+02 -3.04800000E-01
  1 3317 3.41916790E+00 1.10819980E+02 -3.04800000E-01
  1 3318 3.41916790E+00 1.10819980E+02 -3.04800000E-01
  1 3321 3.25586628E+00 9.27662264E+01 -3.04800000E-01
  1 3322 3.07868785E+00 1.15214255E+02 -3.04800000E-01
  1 3329 3.21070757E+00 9.06902296E+01 -3.04800000E-01
  1 3330 3.04108440E+00 1.02425035E+02 -3.04800000E-01
  1 3331 3.04108440E+00 1.44328404E+02 -3.04800000E-01
  1 3332 3.53994178E+00 1.04092226E+02 -3.04800000E-01
  1 3333 3.03279658E+00 1.31872690E+02 -3.04800000E-01
  1 3338 3.13127807E+00 1.37901607E+02 -3.04800000E-01
  1 3339 3.22074957E+00 1.04483907E+02 -3.04800000E-01
  1 3340 3.04108440E+00 1.36767082E+02 -3.04800000E-01
  1 3345 3.07911369E+00 1.19566395E+02 -3.04800000E-01
  1 3346 3.04721088E+00 1.22221270E+02 -3.04800000E-01
  1 3347 3.08655492E+00 1.29088659E+02 -3.04800000E-01
  1 3350 3.09061104E+00 1.23595988E+02 -3.04800000E-01
  1 3351 3.09061104E+00 1.12937678E+02 -3.04800000E-01
  1 3352 4.16432219E+00 1.04483907E+02 -3.04800000E-01
  1 3353 3.04748318E+00 1.29448987E+02 -3.04800000E-01
  1 3354 3.23144943E+00 1.16108690E+02 -3.04800000E-01
  1 3355 3.20856599E+00 1.14601452E+02 -3.04800000E-01
  1 3358 3.13873014E+00 1.32012007E+02 -3.04800000E-01
  1 3359 3.15193096E+00 1.15214255E+02 -3.04800000E-01
  1 3441 3.56121484E+00 9.06348944E+01 -3.04800000E-01
  1 3442 3.26741381E+00 1.13209219E+02 -3.04800000E-01
  1 3443 3.08464938E+00 1.18815330E+02 -3.04800000E-01
  1 3444 3.04135669E+00 1.38888197E+02 -3.04800000E-01
  1 3445 3.04448797E+00 1.03503946E+02 -3.04800000E-01
  1 3446 3.04721087E+00 1.14717477E+02 -3.04800000E-01
  1 3447 3.04448799E+00 1.44328404E+02 -3.04800000E-01
  1 3448 3.04448799E+00 1.44328404E+02 -3.04800000E-01
  1 3450 3.25890909E+00 9.06902296E+01 -3.04800000E-01
  1 3451 3.04230969E+00 1.42249585E+02 -3.04800000E-01
  1 3454 3.11312031E+00 1.14246109E+02 -3.04800000E-01
  1 3455 3.04499832E+00 1.29323551E+02 -3.04800000E-01
  1 3458 3.11713839E+00 1.31479524E+02 -3.04800000E-01
  1 3507 3.34468281E+00 1.13238674E+02 -3.04800000E-01
  1 3508 3.46992308E+00 1.31479524E+02 -3.04800000E-01
  1 3509 3.49506941E+00 1.27436080E+02 -3.04800000E-01
  1 3510 3.13240703E+00 1.10630749E+02 -3.04800000E-01
  1 3576 3.36449144E+00 8.01107873E+01 -3.04800000E-01
  1 3577 3.16302650E+00 8.60062931E+01 -3.04800000E-01
  1 3579 2.99836809E+00 1.00014065E+02 -3.04800000E-01
  1 3580 2.99078975E+00 1.07089793E+02 -3.04800000E-01
  1 3581 3.00232260E+00 1.11143579E+02 -3.04800000E-01
  1 3582 3.02469398E+00 1.25149826E+02 -3.04800000E-01
  1 3589 3.03989607E+00 1.03595779E+02 -3.04800000E-01
  1 3608 2.92367803E+00 1.17562697E+02 -3.04800000E-01
  1 3610 3.04388468E+00 1.15770601E+02 -3.04800000E-01
  1 3611 2.99585845E+00 1.21545923E+02 -3.04800000E-01
  1 3648 3.02540654E+00 1.29647344E+02 -3.04800000E-01
  1 3649 3.13732493E+00 1.33822107E+02 -3.04800000E-01
  1 3650 3.04065403E+00 1.34844000E+02 -3.04800000E-01
  1 3698 3.17164112E+00 1.11693799E+02 -3.04800000E-01
  1 3699 3.02229148E+00 1.19087298E+02 -3.04800000E-01
  1 3700 3.04169027E+00 1.10925027E+02 -3.04800000E-01
  1 3701 3.29049912E+00 1.14271235E+02 -3.04800000E-01
  1 3702 3.02495375E+00 1.07227095E+02 -3.04800000E-01
  1 3703 3.04234583E+00 1.15341002E+02 -3.04800000E-01
  1 3704 3.21994949E+00 1.19329345E+02 -3.04800000E-01
  1 3705 3.08470424E+00 1.12253719E+02 -3.04800000E-01
  1 3706 3.00276738E+00 1.11325895E+02 -3.04800000E-01
  1 3707 3.03688252E+00 1.28679321E+02 -3.04800000E-01
  1 3708 3.08325064E+00 1.14364458E+02 -3.04800000E-01
  1 3709 3.01063885E+00 1.19990194E+02 -3.04800000E-01
  1 3710 3.04234586E+00 1.31825007E+02 -3.04800000E-01
  1 3711 3.07403287E+00 1.35406789E+02 -3.04800000E-01
  1 3712 3.10482080E+00 1.08248358E+02 -3.04800000E-01
  1 3713 3.06853069E+00 1.28189291E+02 -3.04800000E-01
  1 3714 3.08696823E+00 1.12269199E+02 -3.04800000E-01
  1 3715 2.98671265E+00 1.74677875E+02 -3.04800000E-01
  1 3716 3.02944102E+00 1.39606630E+02 -3.04800000E-01
  1 3717 3.11079321E+00 1.26234530E+02 -3.04800000E-01
  1 3718 3.13654943E+00 1.20989792E+02 -3.04800000E-01
  1 3719 3.22212791E+00 1.07990824E+02 -3.04800000E-01
  1 3720 3.04734152E+00 1.05466283E+02 -3.04800000E-01
  1 3721 3.04437410E+00 1.28509463E+02 -3.04800000E-01
  1 3722 3.03259237E+00 9.85552572E+01 -3.04800000E-01
  1 3756 3.08696823E+00 1.14364458E+02 -3.04800000E-01
  1 3757 3.00454231E+00 1.25583364E+02 -3.04800000E-01
  1 3758 3.03731960E+00 1.24289262E+02 -3.04800000E-01
  1 3759 3.07563813E+00 1.35324412E+02 -3.04800000E-01
  1 3760 3.28574480E+00 1.06643519E+02 -3.04800000E-01
  1 3761 3.03717428E+00 1.00548676E+02 -3.04800000E-01
  1 3762 3.29751745E+00 1.12269199E+02 -3.04800000E-01
  1 3763 3.04270294E+00 1.37713516E+02 -3.04800000E-01
  1 3764 3.04671653E+00 1.22918588E+02 -3.04800000E-01
  1 3765 3.13292705E+00 1.14364458E+02 -3.04800000E-01
  1 3766 3.02495378E+00 1.16124678E+02 -3.04800000E-01
  1 3767 3.04234586E+00 1.32186709E+02 -3.04800000E-01
  1 3768 3.10822480E+00 1.35406789E+02 -3.04800000E-01
  1 3769 3.13292705E+00 1.14364458E+02 -3.04800000E-01
  1 3770 3.02495378E+00 1.21878847E+02 -3.04800000E-01
  1 3771 3.04234586E+00 1.31825007E+02 -3.04800000E-01
  1 3772 3.10822480E+00 1.35406789E+02 -3.04800000E-01
  1 3774 3.09557137E+00 1.12269199E+02 -3.04800000E-01
  1 3775 3.01075449E+00 1.27727979E+02 -3.04800000E-01
  1 3776 3.03884933E+00 1.16266166E+02 -3.04800000E-01
  1 3777 3.05289816E+00 1.22300992E+02 -3.04800000E-01
  1 3780 3.02893130E+00 1.43851007E+02 -3.04800000E-01
  1 3802 3.03759612E+00 1.44098569E+02 -3.04800000E-01
  1 3803 3.03829226E+00 1.37128559E+02 -3.04800000E-01
  1 3804 3.05434124E+00 1.08650868E+02 -3.04800000E-01
  1 3830 3.01809824E+00 1.09323505E+02 -3.04800000E-01