# File generated by Flopy version 3.10.0.dev5 on 01/30/2026 at 12:54:50.
BEGIN options
  SAVE_FLOWS
END options

BEGIN packages
  DIS6  gwt-p10-mf6.dis  dis
  IC6  gwt-p10-mf6.ic  ic
  ADV6  gwt-p10-mf6.adv  adv
  DSP6  gwt-p10-mf6.dsp  dsp-1
  MST6  gwt-p10-mf6.mst  mst-1
  SSM6  gwt-p10-mf6.ssm  ssm
  OC6  gwt-p10-mf6.oc  oc
END packages

