# File generated by Flopy version 3.10.0.dev5 on 01/30/2026 at 12:54:25.
BEGIN options
  SCHEME  tvd
  ATS_PERCEL       0.70000000
END options

