# File generated by Flopy version 3.10.0.dev5 on 01/30/2026 at 12:53:31.
BEGIN options
END options

BEGIN dimensions
  MAXBOUND  2
END dimensions

BEGIN period  2
  2 3 4 -3.50000000E+04
  2 8 4 -3.50000000E+04
END period  2

