# File generated by Flopy version 3.10.0.dev5 on 01/30/2026 at 12:53:31.
BEGIN options
END options

BEGIN griddata
  strt
    CONSTANT       0.00000000
END griddata

