# File generated by Flopy version 3.10.0.dev5 on 01/30/2026 at 12:55:17.
BEGIN options
END options

BEGIN packagedata
  GWFHEAD  FILEIN  ../gwf/mp7-p01-gwf.hds
  GWFBUDGET  FILEIN  ../gwf/mp7-p01-gwf.cbb
END packagedata

