# File generated by Flopy version 3.8.0 on 05/07/2026 at 20:45:52.
BEGIN options
  SAVE_FLOWS
END options

BEGIN griddata
  icelltype
    CONSTANT  0
  k
    INTERNAL  FACTOR  1.0
         3.62838018       4.22173416       7.87838477       1.50719824       6.99084068       2.16045839       2.45139942       5.01436400       8.23957037       1.80177584
         2.73039413       5.83148548       2.94912148       1.13922186       7.72881331       9.99033133       8.32116453       4.76153239       4.40883050       1.81534600
         5.25324925       2.19499388       1.65374922       1.69589516       6.23046648       9.36978818       6.49194708       7.95329475       4.61095146       3.75245617
         6.09870494       3.51835303       2.43937614       4.08551077       2.43625534       5.82307415       4.72656083       5.26319875       8.42199232       5.53253154
         9.44690300       2.60706790       5.47777615       5.54520796       5.63872324       2.07930381       4.70245944       2.93574745       2.63222373       5.30227632
         1.21177486       2.14398530       3.86613749       8.46023257       1.49156871       6.79883182       9.20759407       9.16056785       8.73511307       5.59594117
         6.07545341       1.00618394       6.04054029       6.32557965       8.66083562       5.60329732       5.35899709       4.00225890       6.34819122       8.68142834
         4.42513060       2.97564713       1.80220761       4.87499018       5.96212470       2.58822319       4.50447514       2.57546327       6.98008673       4.86767514
         2.01836710       6.48769281       9.26876500       5.02330340       4.24668774       5.04268592       8.06133232       8.70462893       9.51765836       6.65363298
         3.81358482       2.08196223       3.46423182       5.33233661       9.54262674       9.29499364       3.81678813       9.39854521       4.28372292       5.03090119
END griddata

