# File generated by Flopy version 3.10.0.dev5 on 01/30/2026 at 12:54:32.
BEGIN options
  PRINT_FLOWS
END options

BEGIN dimensions
  MAXBOUND  1
END dimensions

BEGIN period  1
  7 42 22  -1.43400000E-05
END period  1

