# File generated by Flopy version 3.10.0 on 05/09/2026 at 09:47:48.
BEGIN options
END options

BEGIN timing
  TDIS6  sim_model_0660.tdis
END timing

BEGIN models
  gwf6  sim_model_0660.nam  sim_model_0660
END models

BEGIN exchanges
END exchanges

BEGIN solutiongroup  1
  ims6  sim_model_0660.ims  sim_model_0660
END solutiongroup  1

