# File generated by Flopy version 3.8.0 on 05/07/2026 at 20:44:58.
BEGIN options
  SAVE_FLOWS
END options

BEGIN griddata
  icelltype
    CONSTANT  0
  k
    INTERNAL  FACTOR  1.0
         3.61152116       8.39668126       1.29256997       3.32153137       4.35199978       8.90190175       2.58160538       8.92538055       4.21838473       3.53386224
         9.99808571       6.91773087       1.68259956       3.20606867       3.70212052       3.65262157       7.75828424       2.77418861       1.61939140       1.26773939
         2.51764034       2.05313141       3.89483499       8.37106186       5.34344779       6.52714168       1.85672918       6.36215488       9.79908339       5.51285451
         8.45189098       7.34092542       2.49579495       3.03901281       9.06224525       6.27455273       2.53142366       8.76599760       7.39641994       6.81285589
         9.83601766       5.73172160       6.03686876       4.26029086       8.79310294       9.21472094       6.42768559       6.10646780       3.89529268       2.40357843
         8.71221363       5.00222281       7.09107593       3.93202876       9.29727143       8.88265792       4.32524060       7.84673331       1.56299590       9.14928801
         9.99955618       7.87887788       6.78769810       7.10991377       2.91261610       3.35058830       4.78260834       9.02333753       8.83067865       4.08132971
         4.41733551       7.59681098       6.15897363       5.53187035       1.22360215       1.26562188       7.61323004       6.49093453       7.94430539       5.60655429
         1.15005526       3.03994459       7.71821106       9.16447327       9.42942496       2.09462375       2.93856405       4.60177650       3.14366492       4.69078447
         8.13905412       1.87911809       8.02279243       4.42570368       4.58302203       7.52268590       4.03458419       2.41794844       6.05428479       6.04411140
END griddata

