# File generated by Flopy version 3.8.0 on 05/07/2026 at 20:44:55.
BEGIN options
  SAVE_FLOWS
END options

BEGIN griddata
  icelltype
    CONSTANT  0
  k
    INTERNAL  FACTOR  1.0
         9.26392939       5.88529948       4.52723025       8.30811458       2.49740725       8.39151819       6.86248867       5.96224791       8.65433045       6.19914389
         7.24454192       9.26750934       9.21729474       5.01622491       8.37930025       6.09788096       6.01688334       9.02162979       2.07042000       6.99194003
         7.08020271       3.80185438       4.35444720       7.63141859       4.31069109       1.24956525       2.15672953       4.56920040       7.68516724       2.07829561
         8.71624706       2.80393200       4.83596400       1.93363694       9.65069623       7.70380738       8.31608384       9.00553914       8.62490263       6.54983379
         4.40421658       6.12616732       8.43924716       9.92898567       4.94890851       2.23587171       4.88380503       3.36782036       3.84395478       7.95500062
         8.05093313       5.99082874       7.93533796       7.95037726       9.23483777       5.44350246       5.18226994       4.61833480       9.40259323       7.07168299
         8.09481426       1.82268813       2.00220534       1.10408215       1.76174403       4.13746012       4.78765837       2.80809743       5.08102798       6.60673416
         4.90917718       2.79428446       2.78489167       5.60208839       5.59953189       5.93904300       8.76628617       4.53807405       2.23712875       2.74147729
         9.33936501       3.87042554       8.85852309       7.93658914       1.97596772       4.73294183       1.29101576       6.38524551       1.57214926       8.34697342
         6.14622476       6.19185044       8.07098381       2.13732511       1.19559829       2.69548003       5.18273693       9.15294428       7.22441210       8.74130341
END griddata

